
     RDKit          3D

 10 10  0  0  0  0  0  0  0  0999 V2000
  -27.8520   -7.4330  -31.2240 C   0  0  0  0  0  0  0  0  0  0  0  0
  -27.6880   -6.7890  -32.4150 N   0  0  0  0  0  0  0  0  0  0  0  0
  -27.4900   -8.8840  -31.0870 N   0  0  0  0  0  0  0  0  0  0  0  0
  -28.0520   -5.5040  -32.2590 C   0  0  0  0  0  0  0  0  0  0  0  0
  -28.4400   -5.3660  -30.9610 N   0  0  0  0  0  0  0  0  0  0  0  0
  -28.3190   -6.5270  -30.3430 N   0  0  0  0  0  0  0  0  0  0  0  0
  -28.3510   -6.9490  -28.9180 C   0  0  0  0  0  0  0  0  0  0  0  0
  -28.4060   -9.7750  -31.4040 C   0  0  0  0  0  0  0  0  0  0  0  0
  -29.5120   -9.6940  -31.9410 O   0  0  0  0  0  0  0  0  0  0  0  0
  -28.0620  -11.2620  -31.0780 C   0  0  0  0  0  0  0  0  0  0  0  0
  1  2  2  0
  1  3  1  0
  1  6  1  0
  2  4  1  0
  3  8  1  0
  4  5  2  0
  5  6  1  0
  6  7  1  0
  8  9  2  0
  8 10  1  0
M  END
>  <name>  (1) 
Car Nac Nd0 Car Nac Nac Cs3 Cs2 .=O Cs3

>  <indices>  (1) 
[0, 1, 2]

>  <tasks>  (1) 
probe_placing close_aromatic_ring close_aromatic_ring close_aromatic_ring ring_built build_to_Nac build_to_Nd0 build_DB_to_Cs2

>  <prot_clashes>  (1) 
1

>  <NBS phar>  (1) 
0.32

>  <NBS_non-phar>  (1) 
0.6852295875549317

>  <NBS>  (1) 
1.0052295875549317

>  <source_stage>  (1) 
scored

>  <source_iter>  (1) 
7

>  <source_parent_mol>  (1) 
0

>  <source_scenario>  (1) 
1 2 3 1 0 0 0

>  <source_rank_in_scored_call>  (1) 
1

>  <source_current_task>  (1) 
build_SB_to_Cs2

>  <scenario>  (1) 
1 2 3 1 0 0

>  <protected_ring_attachments>  (1) 
3,1,0,2|1,0,2;4,5,0,2|5,0,2

>  <current_task>  (1) 
no_task

>  <rotatable_bond_torsions>  (1) 
1,0,2,7;0,2,7,8

$$$$

     RDKit          3D

 11 12  0  0  0  0  0  0  0  0999 V2000
  -28.3380   -8.1790  -31.4480 C   0  0  0  0  0  0  0  0  0  0  0  0
  -27.9000   -7.1910  -32.2460 N   0  0  0  0  0  0  0  0  0  0  0  0
  -28.4320   -9.5150  -31.5870 N   0  0  0  0  0  0  0  0  0  0  0  0
  -27.9160   -5.9060  -31.8510 C   0  0  0  0  0  0  0  0  0  0  0  0
  -28.3710   -5.5430  -30.6360 N   0  0  0  0  0  0  0  0  0  0  0  0
  -28.8200   -6.4980  -29.8030 C   0  0  0  0  0  0  0  0  0  0  0  0
  -28.8060   -7.8220  -30.2010 C   0  0  0  0  0  0  0  0  0  0  0  0
  -27.4020   -5.0070  -32.8290 O   0  0  0  0  0  0  0  0  0  0  0  0
  -28.4130   -4.0510  -30.2970 C   0  0  0  0  0  0  0  0  0  0  0  0
  -28.9530  -10.0220  -30.4510 C   0  0  0  0  0  0  0  0  0  0  0  0
  -29.1890   -8.9750  -29.5820 C   0  0  0  0  0  0  0  0  0  0  0  0
  1  2  2  0
  1  3  1  0
  1  7  1  0
  2  4  1  0
  3 10  1  0
  4  8  2  0
  4  5  1  0
  5  9  1  0
  5  6  1  0
  6  7  2  0
  7 11  1  0
 10 11  2  0
M  END
>  <name>  (2) 
Car Nac Nd0 Car Nac Car Car .=O Cs3 Car Car

>  <indices>  (2) 
[0, 1, 2]

>  <tasks>  (2) 
probe_placing close_aromatic_ring close_aromatic_ring close_aromatic_ring close_aromatic_ring ring_built fix_Car build_to_Nac build_to_Nd0

>  <prot_clashes>  (2) 
0

>  <NBS phar>  (2) 
0.32

>  <NBS_non-phar>  (2) 
0.542228178544478

>  <NBS>  (2) 
0.8622281785444781

>  <source_stage>  (2) 
scored

>  <source_iter>  (2) 
8

>  <source_parent_mol>  (2) 
1

>  <source_scenario>  (2) 
1 2 7 0 0 1 5 1

>  <source_rank_in_scored_call>  (2) 
6

>  <source_current_task>  (2) 
close_aromatic_ring

>  <scenario>  (2) 
1 2 7 0 0 1 5

>  <protected_ring_attachments>  (2) 
3,1,0,2|1,0,2;5,6,0,2|6,0,2

>  <current_task>  (2) 
no_task

>  <rotatable_bond_torsions>  (2) 
1,0,2,9

$$$$

     RDKit          3D

 12 13  0  0  0  0  0  0  0  0999 V2000
  -28.2340   -7.1560  -31.5690 C   0  0  0  0  0  0  0  0  0  0  0  0
  -27.6900   -6.3360  -32.5130 N   0  0  0  0  0  0  0  0  0  0  0  0
  -28.1730   -8.5650  -31.7510 N   0  0  0  0  0  0  0  0  0  0  0  0
  -27.8180   -5.1070  -32.1070 O   0  0  0  0  0  0  0  0  0  0  0  0
  -28.4250   -5.0900  -30.9330 C   0  0  0  0  0  0  0  0  0  0  0  0
  -28.6970   -6.3750  -30.5730 N   0  0  0  0  0  0  0  0  0  0  0  0
  -28.7270   -9.3400  -30.9480 C   0  0  0  0  0  0  0  0  0  0  0  0
  -29.3180   -9.0090  -29.7700 N   0  0  0  0  0  0  0  0  0  0  0  0
  -29.9230   -9.9820  -29.0330 C   0  0  0  0  0  0  0  0  0  0  0  0
  -29.9410  -11.2930  -29.4680 C   0  0  0  0  0  0  0  0  0  0  0  0
  -29.3470  -11.6720  -30.6670 C   0  0  0  0  0  0  0  0  0  0  0  0
  -28.7430  -10.6640  -31.3890 C   0  0  0  0  0  0  0  0  0  0  0  0
  1  2  2  0
  1  3  1  0
  1  6  1  0
  2  4  1  0
  3  7  1  0
  4  5  1  0
  5  6  2  0
  7 12  1  0
  7  8  2  0
  8  9  1  0
  9 10  2  0
 10 11  1  0
 11 12  2  0
M  END
>  <name>  (3) 
Car Nac Nd0 O_a Car Nac Car Nac Car Car Car Car

>  <indices>  (3) 
[0, 1, 2]

>  <tasks>  (3) 
probe_placing close_aromatic_ring close_aromatic_ring close_aromatic_ring ring_built build_to_Nd0 close_aromatic_ring close_aromatic_ring close_aromatic_ring close_aromatic_ring

>  <prot_clashes>  (3) 
0

>  <NBS phar>  (3) 
0.22000000000000003

>  <NBS_non-phar>  (3) 
0.5878421465555826

>  <NBS>  (3) 
0.8078421465555827

>  <source_stage>  (3) 
scored

>  <source_iter>  (3) 
9

>  <source_parent_mol>  (3) 
1

>  <source_scenario>  (3) 
1 3 1 1 4 3 1 0 1

>  <source_rank_in_scored_call>  (3) 
0

>  <source_current_task>  (3) 
close_aromatic_ring

>  <scenario>  (3) 
1 3 1 1 4 3 1 0

>  <protected_ring_attachments>  (3) 
3,1,0,2|1,0,2;4,5,0,2|5,0,2

>  <current_task>  (3) 
no_task

>  <rotatable_bond_torsions>  (3) 
1,0,2,6;0,2,6,7;2,6,7,8;7,8,9,10

$$$$

     RDKit          3D

 12 13  0  0  0  0  0  0  0  0999 V2000
  -28.3310   -7.1010  -31.6330 C   0  0  0  0  0  0  0  0  0  0  0  0
  -27.6880   -6.2800  -32.5130 N   0  0  0  0  0  0  0  0  0  0  0  0
  -28.3420   -8.5020  -31.8650 N   0  0  0  0  0  0  0  0  0  0  0  0
  -27.7680   -5.0630  -32.0680 O   0  0  0  0  0  0  0  0  0  0  0  0
  -28.4380   -5.0500  -30.9280 C   0  0  0  0  0  0  0  0  0  0  0  0
  -28.8030   -6.3290  -30.6310 N   0  0  0  0  0  0  0  0  0  0  0  0
  -28.8360   -9.1400  -30.7190 C   0  0  0  0  0  0  0  0  0  0  0  0
  -29.0100  -10.5120  -30.9340 C   0  0  0  0  0  0  0  0  0  0  0  0
  -29.4540  -11.0480  -29.7830 N   0  0  0  0  0  0  0  0  0  0  0  0
  -29.5620  -10.0670  -28.8690 C   0  0  0  0  0  0  0  0  0  0  0  0
  -29.1880   -8.8540  -29.4050 C   0  0  0  0  0  0  0  0  0  0  0  0
  -29.7680  -12.4610  -29.6220 C   0  0  0  0  0  0  0  0  0  0  0  0
  1  2  2  0
  1  3  1  0
  1  6  1  0
  2  4  1  0
  3  7  1  0
  4  5  1  0
  5  6  2  0
  7  8  2  0
  7 11  1  0
  8  9  1  0
  9 12  1  0
  9 10  1  0
 10 11  2  0
M  END
>  <name>  (4) 
Car Nac Nd0 O_a Car Nac Car Car Nac Car Car Cs3

>  <indices>  (4) 
[0, 1, 2]

>  <tasks>  (4) 
probe_placing close_aromatic_ring close_aromatic_ring close_aromatic_ring ring_built build_to_Nd0 close_aromatic_ring close_aromatic_ring close_aromatic_ring close_aromatic_ring

>  <prot_clashes>  (4) 
1

>  <NBS phar>  (4) 
0.1

>  <NBS_non-phar>  (4) 
0.5637490351994833

>  <NBS>  (4) 
0.6637490351994833

>  <source_stage>  (4) 
scored

>  <source_iter>  (4) 
9

>  <source_parent_mol>  (4) 
0

>  <source_scenario>  (4) 
1 3 1 1 6 4 6 0 0

>  <source_rank_in_scored_call>  (4) 
5

>  <source_current_task>  (4) 
build_to_Nac

>  <scenario>  (4) 
1 3 1 1 6 4 6 0

>  <protected_ring_attachments>  (4) 
3,1,0,2|1,0,2;4,5,0,2|5,0,2;8,7,6,2|7,6,2;9,10,6,2|10,6,2

>  <current_task>  (4) 
no_task

>  <rotatable_bond_torsions>  (4) 
1,0,2,6;0,2,6,7

$$$$

     RDKit          3D

 12 13  0  0  0  0  0  0  0  0999 V2000
  -28.3310   -7.1010  -31.6330 C   0  0  0  0  0  0  0  0  0  0  0  0
  -27.6880   -6.2810  -32.5130 N   0  0  0  0  0  0  0  0  0  0  0  0
  -28.3430   -8.5020  -31.8640 N   0  0  0  0  0  0  0  0  0  0  0  0
  -27.7680   -5.0630  -32.0680 O   0  0  0  0  0  0  0  0  0  0  0  0
  -28.4380   -5.0490  -30.9290 C   0  0  0  0  0  0  0  0  0  0  0  0
  -28.8030   -6.3280  -30.6310 N   0  0  0  0  0  0  0  0  0  0  0  0
  -28.8360   -9.1400  -30.7180 C   0  0  0  0  0  0  0  0  0  0  0  0
  -29.0100  -10.5120  -30.9320 C   0  0  0  0  0  0  0  0  0  0  0  0
  -29.4540  -11.0470  -29.7800 N   0  0  0  0  0  0  0  0  0  0  0  0
  -29.5630  -10.0660  -28.8680 C   0  0  0  0  0  0  0  0  0  0  0  0
  -29.1880   -8.8530  -29.4040 C   0  0  0  0  0  0  0  0  0  0  0  0
  -29.7200  -12.6660  -29.7830 C   0  0  0  0  0  0  0  0  0  0  0  0
  1  2  2  0
  1  3  1  0
  1  6  1  0
  2  4  1  0
  3  7  1  0
  4  5  1  0
  5  6  2  0
  7  8  2  0
  7 11  1  0
  8  9  1  0
  9 12  1  0
  9 10  1  0
 10 11  2  0
M  END
>  <name>  (5) 
Car Nac Nd0 O_a Car Nac Car Car Nac Car Car Cs3

>  <indices>  (5) 
[0, 1, 2]

>  <tasks>  (5) 
probe_placing close_aromatic_ring close_aromatic_ring close_aromatic_ring ring_built build_to_Nd0 close_aromatic_ring close_aromatic_ring close_aromatic_ring close_aromatic_ring

>  <prot_clashes>  (5) 
1

>  <NBS phar>  (5) 
0.1

>  <NBS_non-phar>  (5) 
0.5422970453898112

>  <NBS>  (5) 
0.6422970453898111

>  <source_stage>  (5) 
scored

>  <source_iter>  (5) 
9

>  <source_parent_mol>  (5) 
0

>  <source_scenario>  (5) 
1 3 1 1 6 4 6 0 0

>  <source_rank_in_scored_call>  (5) 
16

>  <source_current_task>  (5) 
build_to_Nac

>  <scenario>  (5) 
1 3 1 1 6 4 6 0

>  <protected_ring_attachments>  (5) 
3,1,0,2|1,0,2;4,5,0,2|5,0,2;8,7,6,2|7,6,2;9,10,6,2|10,6,2

>  <current_task>  (5) 
no_task

>  <rotatable_bond_torsions>  (5) 
1,0,2,6;0,2,6,7

$$$$

     RDKit          3D

 12 13  0  0  0  0  0  0  0  0999 V2000
  -28.3310   -7.1010  -31.6340 C   0  0  0  0  0  0  0  0  0  0  0  0
  -27.6880   -6.2800  -32.5130 N   0  0  0  0  0  0  0  0  0  0  0  0
  -28.3430   -8.5020  -31.8660 N   0  0  0  0  0  0  0  0  0  0  0  0
  -27.7680   -5.0630  -32.0680 O   0  0  0  0  0  0  0  0  0  0  0  0
  -28.4380   -5.0500  -30.9280 C   0  0  0  0  0  0  0  0  0  0  0  0
  -28.8030   -6.3290  -30.6310 N   0  0  0  0  0  0  0  0  0  0  0  0
  -28.8370   -9.1410  -30.7200 C   0  0  0  0  0  0  0  0  0  0  0  0
  -29.0110  -10.5120  -30.9350 C   0  0  0  0  0  0  0  0  0  0  0  0
  -29.4550  -11.0480  -29.7840 N   0  0  0  0  0  0  0  0  0  0  0  0
  -29.5630  -10.0680  -28.8700 C   0  0  0  0  0  0  0  0  0  0  0  0
  -29.1880   -8.8550  -29.4060 C   0  0  0  0  0  0  0  0  0  0  0  0
  -29.8640  -12.5530  -29.3490 C   0  0  0  0  0  0  0  0  0  0  0  0
  1  2  2  0
  1  3  1  0
  1  6  1  0
  2  4  1  0
  3  7  1  0
  4  5  1  0
  5  6  2  0
  7  8  2  0
  7 11  1  0
  8  9  1  0
  9 12  1  0
  9 10  1  0
 10 11  2  0
M  END
>  <name>  (6) 
Car Nac Nd0 O_a Car Nac Car Car Nac Car Car Cs3

>  <indices>  (6) 
[0, 1, 2]

>  <tasks>  (6) 
probe_placing close_aromatic_ring close_aromatic_ring close_aromatic_ring ring_built build_to_Nd0 close_aromatic_ring close_aromatic_ring close_aromatic_ring close_aromatic_ring

>  <prot_clashes>  (6) 
0

>  <NBS phar>  (6) 
0.1

>  <NBS_non-phar>  (6) 
0.5387342770894369

>  <NBS>  (6) 
0.6387342770894369

>  <source_stage>  (6) 
scored

>  <source_iter>  (6) 
9

>  <source_parent_mol>  (6) 
0

>  <source_scenario>  (6) 
1 3 1 1 6 4 6 0 0

>  <source_rank_in_scored_call>  (6) 
18

>  <source_current_task>  (6) 
build_to_Nac

>  <scenario>  (6) 
1 3 1 1 6 4 6 0

>  <protected_ring_attachments>  (6) 
3,1,0,2|1,0,2;4,5,0,2|5,0,2;8,7,6,2|7,6,2;9,10,6,2|10,6,2

>  <current_task>  (6) 
no_task

>  <rotatable_bond_torsions>  (6) 
1,0,2,6;0,2,6,7

$$$$

     RDKit          3D

  9  9  0  0  0  0  0  0  0  0999 V2000
  -28.3560   -7.2300  -31.6840 C   0  0  0  0  0  0  0  0  0  0  0  0
  -27.7080   -6.3520  -32.5020 N   0  0  0  0  0  0  0  0  0  0  0  0
  -28.3940   -8.6080  -32.0280 N   0  0  0  0  0  0  0  0  0  0  0  0
  -27.7630   -5.1720  -31.9600 O   0  0  0  0  0  0  0  0  0  0  0  0
  -28.4230   -5.2420  -30.8140 C   0  0  0  0  0  0  0  0  0  0  0  0
  -28.8070   -6.5340  -30.6180 N   0  0  0  0  0  0  0  0  0  0  0  0
  -28.7510   -9.5430  -31.1880 C   0  0  0  0  0  0  0  0  0  0  0  0
  -29.2390   -9.4390  -30.0410 O   0  0  0  0  0  0  0  0  0  0  0  0
  -28.6010  -11.0090  -31.6180 C   0  0  0  0  0  0  0  0  0  0  0  0
  1  2  2  0
  1  3  1  0
  1  6  1  0
  2  4  1  0
  3  7  1  0
  4  5  1  0
  5  6  2  0
  7  9  1  0
  7  8  2  0
M  END
>  <name>  (7) 
Car Nac Nd0 O_a Car Nac Cs2 .=O Cs3

>  <indices>  (7) 
[0, 1, 2]

>  <tasks>  (7) 
probe_placing close_aromatic_ring close_aromatic_ring close_aromatic_ring ring_built build_to_Nd0 build_DB_to_Cs2

>  <prot_clashes>  (7) 
0

>  <NBS phar>  (7) 
0.12

>  <NBS_non-phar>  (7) 
0.6125598483615451

>  <NBS>  (7) 
0.7325598483615451

>  <source_stage>  (7) 
scored

>  <source_iter>  (7) 
6

>  <source_parent_mol>  (7) 
0

>  <source_scenario>  (7) 
1 3 1 1 7 0

>  <source_rank_in_scored_call>  (7) 
1

>  <source_current_task>  (7) 
build_SB_to_Cs2

>  <scenario>  (7) 
1 3 1 1 7

>  <protected_ring_attachments>  (7) 
3,1,0,2|1,0,2;4,5,0,2|5,0,2

>  <current_task>  (7) 
no_task

>  <rotatable_bond_torsions>  (7) 
1,0,2,6;0,2,6,7

$$$$

     RDKit          3D

 10 10  0  0  0  0  0  0  0  0999 V2000
  -28.3700   -7.2210  -31.7120 C   0  0  0  0  0  0  0  0  0  0  0  0
  -27.7440   -6.3110  -32.5130 N   0  0  0  0  0  0  0  0  0  0  0  0
  -28.4020   -8.5880  -32.1000 N   0  0  0  0  0  0  0  0  0  0  0  0
  -27.8010   -5.1500  -31.9320 O   0  0  0  0  0  0  0  0  0  0  0  0
  -28.4400   -5.2630  -30.7780 C   0  0  0  0  0  0  0  0  0  0  0  0
  -28.8090   -6.5640  -30.6170 N   0  0  0  0  0  0  0  0  0  0  0  0
  -28.7360   -9.5520  -31.2840 C   0  0  0  0  0  0  0  0  0  0  0  0
  -29.2050   -9.4900  -30.1260 O   0  0  0  0  0  0  0  0  0  0  0  0
  -28.5810  -11.0020  -31.7630 C   0  0  0  0  0  0  0  0  0  0  0  0
  -28.7130   -4.1400  -29.8070 C   0  0  0  0  0  0  0  0  0  0  0  0
  1  2  2  0
  1  3  1  0
  1  6  1  0
  2  4  1  0
  3  7  1  0
  4  5  1  0
  5  6  2  0
  5 10  1  0
  7  9  1  0
  7  8  2  0
M  END
>  <name>  (8) 
Car Nac Nd0 O_a Car Nac Cs2 .=O Cs3 Cs3

>  <indices>  (8) 
[0, 1, 2]

>  <tasks>  (8) 
probe_placing close_aromatic_ring close_aromatic_ring close_aromatic_ring ring_built build_to_Nd0 build_DB_to_Cs2 build_SB_to_Cs2

>  <prot_clashes>  (8) 
1

>  <NBS phar>  (8) 
0.13999999999999999

>  <NBS_non-phar>  (8) 
0.5855076789855957

>  <NBS>  (8) 
0.7255076789855958

>  <source_stage>  (8) 
scored

>  <source_iter>  (8) 
7

>  <source_parent_mol>  (8) 
1

>  <source_scenario>  (8) 
1 3 1 1 7 0 1

>  <source_rank_in_scored_call>  (8) 
17

>  <source_current_task>  (8) 
no_task

>  <scenario>  (8) 
1 3 1 1 7 0

>  <protected_ring_attachments>  (8) 
3,1,0,2|1,0,2;4,5,0,2|5,0,2

>  <current_task>  (8) 
no_task

>  <rotatable_bond_torsions>  (8) 
1,0,2,6;0,2,6,8

$$$$

     RDKit          3D

 10 10  0  0  0  0  0  0  0  0999 V2000
  -28.3890   -7.2280  -31.7250 C   0  0  0  0  0  0  0  0  0  0  0  0
  -27.6900   -6.3630  -32.5140 N   0  0  0  0  0  0  0  0  0  0  0  0
  -28.4940   -8.5930  -32.1060 N   0  0  0  0  0  0  0  0  0  0  0  0
  -27.6900   -5.1960  -31.9400 O   0  0  0  0  0  0  0  0  0  0  0  0
  -28.3630   -5.2630  -30.8020 C   0  0  0  0  0  0  0  0  0  0  0  0
  -28.8140   -6.5380  -30.6440 N   0  0  0  0  0  0  0  0  0  0  0  0
  -28.9060   -9.5300  -31.2950 C   0  0  0  0  0  0  0  0  0  0  0  0
  -29.3990   -9.4320  -30.1490 O   0  0  0  0  0  0  0  0  0  0  0  0
  -28.8270  -10.9900  -31.7630 C   0  0  0  0  0  0  0  0  0  0  0  0
  -28.0620  -11.9030  -30.8430 C   0  0  0  0  0  0  0  0  0  0  0  0
  1  2  2  0
  1  3  1  0
  1  6  1  0
  2  4  1  0
  3  7  1  0
  4  5  1  0
  5  6  2  0
  7  9  1  0
  7  8  2  0
  9 10  1  0
M  END
>  <name>  (9) 
Car Nac Nd0 O_a Car Nac Cs2 .=O Cs3 Cs3

>  <indices>  (9) 
[0, 1, 2]

>  <tasks>  (9) 
probe_placing close_aromatic_ring close_aromatic_ring close_aromatic_ring ring_built build_to_Nd0 build_DB_to_Cs2 build_SB_to_Cs2

>  <prot_clashes>  (9) 
1

>  <NBS phar>  (9) 
0.1

>  <NBS_non-phar>  (9) 
0.6245866298675538

>  <NBS>  (9) 
0.7245866298675537

>  <source_stage>  (9) 
scored

>  <source_iter>  (9) 
7

>  <source_parent_mol>  (9) 
1

>  <source_scenario>  (9) 
1 3 1 1 7 0 1

>  <source_rank_in_scored_call>  (9) 
18

>  <source_current_task>  (9) 
no_task

>  <scenario>  (9) 
1 3 1 1 7 0

>  <protected_ring_attachments>  (9) 
3,1,0,2|1,0,2;4,5,0,2|5,0,2

>  <current_task>  (9) 
no_task

>  <rotatable_bond_torsions>  (9) 
1,0,2,6;0,2,6,8

$$$$

     RDKit          3D

 10 10  0  0  0  0  0  0  0  0999 V2000
  -28.2570   -7.1150  -31.5500 C   0  0  0  0  0  0  0  0  0  0  0  0
  -27.6920   -6.3350  -32.5160 N   0  0  0  0  0  0  0  0  0  0  0  0
  -28.2140   -8.5290  -31.6790 N   0  0  0  0  0  0  0  0  0  0  0  0
  -27.8090   -5.0910  -32.1570 O   0  0  0  0  0  0  0  0  0  0  0  0
  -28.4290   -5.0240  -30.9890 C   0  0  0  0  0  0  0  0  0  0  0  0
  -28.7210   -6.2920  -30.5850 N   0  0  0  0  0  0  0  0  0  0  0  0
  -28.4840   -9.3440  -30.6940 C   0  0  0  0  0  0  0  0  0  0  0  0
  -28.9440   -9.0950  -29.5580 O   0  0  0  0  0  0  0  0  0  0  0  0
  -28.2500  -10.8470  -30.9030 C   0  0  0  0  0  0  0  0  0  0  0  0
  -29.5410  -11.5030  -31.3990 C   0  0  0  0  0  0  0  0  0  0  0  0
  1  2  2  0
  1  3  1  0
  1  6  1  0
  2  4  1  0
  3  7  1  0
  4  5  1  0
  5  6  2  0
  7  9  1  0
  7  8  2  0
  9 10  1  0
M  END
>  <name>  (10) 
Car Nac Nd0 O_a Car Nac Cs2 .=O Cs3 Cs3

>  <indices>  (10) 
[0, 1, 2]

>  <tasks>  (10) 
probe_placing close_aromatic_ring close_aromatic_ring close_aromatic_ring ring_built build_to_Nd0 build_DB_to_Cs2 build_SB_to_Cs2

>  <prot_clashes>  (10) 
0

>  <NBS phar>  (10) 
0.22000000000000003

>  <NBS_non-phar>  (10) 
0.49546232223510744

>  <NBS>  (10) 
0.7154623222351075

>  <source_stage>  (10) 
scored

>  <source_iter>  (10) 
7

>  <source_parent_mol>  (10) 
1

>  <source_scenario>  (10) 
1 3 1 1 7 0 1

>  <source_rank_in_scored_call>  (10) 
20

>  <source_current_task>  (10) 
no_task

>  <scenario>  (10) 
1 3 1 1 7 0

>  <protected_ring_attachments>  (10) 
3,1,0,2|1,0,2;4,5,0,2|5,0,2

>  <current_task>  (10) 
no_task

>  <rotatable_bond_torsions>  (10) 
1,0,2,6;0,2,6,8

$$$$

     RDKit          3D

 10 10  0  0  0  0  0  0  0  0999 V2000
  -28.3750   -7.1800  -31.7010 C   0  0  0  0  0  0  0  0  0  0  0  0
  -27.7130   -6.3070  -32.5130 N   0  0  0  0  0  0  0  0  0  0  0  0
  -28.4350   -8.5540  -32.0540 N   0  0  0  0  0  0  0  0  0  0  0  0
  -27.7500   -5.1290  -31.9630 O   0  0  0  0  0  0  0  0  0  0  0  0
  -28.4110   -5.1960  -30.8180 C   0  0  0  0  0  0  0  0  0  0  0  0
  -28.8160   -6.4830  -30.6310 N   0  0  0  0  0  0  0  0  0  0  0  0
  -28.8070   -9.4890  -31.2200 C   0  0  0  0  0  0  0  0  0  0  0  0
  -29.2940   -9.3850  -30.0730 O   0  0  0  0  0  0  0  0  0  0  0  0
  -28.6800  -10.9550  -31.6600 C   0  0  0  0  0  0  0  0  0  0  0  0
  -28.4390  -11.9770  -30.5770 C   0  0  0  0  0  0  0  0  0  0  0  0
  1  2  2  0
  1  3  1  0
  1  6  1  0
  2  4  1  0
  3  7  1  0
  4  5  1  0
  5  6  2  0
  7  9  1  0
  7  8  2  0
  9 10  1  0
M  END
>  <name>  (11) 
Car Nac Nd0 O_a Car Nac Cs2 .=O Cs3 Cs3

>  <indices>  (11) 
[0, 1, 2]

>  <tasks>  (11) 
probe_placing close_aromatic_ring close_aromatic_ring close_aromatic_ring ring_built build_to_Nd0 build_DB_to_Cs2 build_SB_to_Cs2

>  <prot_clashes>  (11) 
0

>  <NBS phar>  (11) 
0.1

>  <NBS_non-phar>  (11) 
0.5863560199737549

>  <NBS>  (11) 
0.6863560199737548

>  <source_stage>  (11) 
scored

>  <source_iter>  (11) 
7

>  <source_parent_mol>  (11) 
1

>  <source_scenario>  (11) 
1 3 1 1 7 0 1

>  <source_rank_in_scored_call>  (11) 
39

>  <source_current_task>  (11) 
no_task

>  <scenario>  (11) 
1 3 1 1 7 0

>  <protected_ring_attachments>  (11) 
3,1,0,2|1,0,2;4,5,0,2|5,0,2

>  <current_task>  (11) 
no_task

>  <rotatable_bond_torsions>  (11) 
1,0,2,6;0,2,6,8

$$$$

     RDKit          3D

 10 10  0  0  0  0  0  0  0  0999 V2000
  -28.3310   -7.1320  -31.6210 C   0  0  0  0  0  0  0  0  0  0  0  0
  -27.6900   -6.3220  -32.5120 N   0  0  0  0  0  0  0  0  0  0  0  0
  -28.3430   -8.5360  -31.8370 N   0  0  0  0  0  0  0  0  0  0  0  0
  -27.7700   -5.0980  -32.0820 O   0  0  0  0  0  0  0  0  0  0  0  0
  -28.4390   -5.0730  -30.9400 C   0  0  0  0  0  0  0  0  0  0  0  0
  -28.8030   -6.3480  -30.6280 N   0  0  0  0  0  0  0  0  0  0  0  0
  -28.6910   -9.3960  -30.9160 C   0  0  0  0  0  0  0  0  0  0  0  0
  -29.1910   -9.1950  -29.7870 O   0  0  0  0  0  0  0  0  0  0  0  0
  -28.5130  -10.8920  -31.2080 C   0  0  0  0  0  0  0  0  0  0  0  0
  -29.5710  -11.6940  -30.5410 C   0  0  0  0  0  0  0  0  0  0  0  0
  1  2  2  0
  1  3  1  0
  1  6  1  0
  2  4  1  0
  3  7  1  0
  4  5  1  0
  5  6  2  0
  7  9  1  0
  7  8  2  0
  9 10  1  0
M  END
>  <name>  (12) 
Car Nac Nd0 O_a Car Nac Cs2 .=O Cs3 Cs3

>  <indices>  (12) 
[0, 1, 2]

>  <tasks>  (12) 
probe_placing close_aromatic_ring close_aromatic_ring close_aromatic_ring ring_built build_to_Nd0 build_DB_to_Cs2 build_SB_to_Cs2

>  <prot_clashes>  (12) 
0

>  <NBS phar>  (12) 
0.1

>  <NBS_non-phar>  (12) 
0.5855025768280029

>  <NBS>  (12) 
0.6855025768280029

>  <source_stage>  (12) 
scored

>  <source_iter>  (12) 
7

>  <source_parent_mol>  (12) 
1

>  <source_scenario>  (12) 
1 3 1 1 7 0 1

>  <source_rank_in_scored_call>  (12) 
40

>  <source_current_task>  (12) 
no_task

>  <scenario>  (12) 
1 3 1 1 7 0

>  <protected_ring_attachments>  (12) 
3,1,0,2|1,0,2;4,5,0,2|5,0,2

>  <current_task>  (12) 
no_task

>  <rotatable_bond_torsions>  (12) 
1,0,2,6;0,2,6,8

$$$$

     RDKit          3D

 10 10  0  0  0  0  0  0  0  0999 V2000
  -28.3370   -7.1270  -31.5950 C   0  0  0  0  0  0  0  0  0  0  0  0
  -27.6890   -6.3520  -32.5110 N   0  0  0  0  0  0  0  0  0  0  0  0
  -28.3590   -8.5380  -31.7640 N   0  0  0  0  0  0  0  0  0  0  0  0
  -27.7610   -5.1140  -32.1220 O   0  0  0  0  0  0  0  0  0  0  0  0
  -28.4320   -5.0470  -30.9830 C   0  0  0  0  0  0  0  0  0  0  0  0
  -28.8060   -6.3080  -30.6290 N   0  0  0  0  0  0  0  0  0  0  0  0
  -28.7160   -9.3640  -30.8160 C   0  0  0  0  0  0  0  0  0  0  0  0
  -29.2170   -9.1220  -29.6960 O   0  0  0  0  0  0  0  0  0  0  0  0
  -28.5470  -10.8710  -31.0570 C   0  0  0  0  0  0  0  0  0  0  0  0
  -29.5930  -11.6460  -30.3980 C   0  0  0  0  0  0  0  0  0  0  0  0
  1  2  2  0
  1  3  1  0
  1  6  1  0
  2  4  1  0
  3  7  1  0
  4  5  1  0
  5  6  2  0
  7  9  1  0
  7  8  2  0
  9 10  1  0
M  END
>  <name>  (13) 
Car Nac Nd0 O_a Car Nac Cs2 .=O Cs3 Cs3

>  <indices>  (13) 
[0, 1, 2]

>  <tasks>  (13) 
probe_placing close_aromatic_ring close_aromatic_ring close_aromatic_ring ring_built build_to_Nd0 build_DB_to_Cs2 build_SB_to_Cs2

>  <prot_clashes>  (13) 
0

>  <NBS phar>  (13) 
0.1

>  <NBS_non-phar>  (13) 
0.5708065032958984

>  <NBS>  (13) 
0.6708065032958984

>  <source_stage>  (13) 
scored

>  <source_iter>  (13) 
7

>  <source_parent_mol>  (13) 
1

>  <source_scenario>  (13) 
1 3 1 1 7 0 1

>  <source_rank_in_scored_call>  (13) 
45

>  <source_current_task>  (13) 
no_task

>  <scenario>  (13) 
1 3 1 1 7 0

>  <protected_ring_attachments>  (13) 
3,1,0,2|1,0,2;4,5,0,2|5,0,2

>  <current_task>  (13) 
no_task

>  <rotatable_bond_torsions>  (13) 
1,0,2,6;0,2,6,8

$$$$

     RDKit          3D

 10 10  0  0  0  0  0  0  0  0999 V2000
  -28.3690   -7.2000  -31.7220 C   0  0  0  0  0  0  0  0  0  0  0  0
  -27.6930   -6.3190  -32.5140 N   0  0  0  0  0  0  0  0  0  0  0  0
  -28.4370   -8.5680  -32.0970 N   0  0  0  0  0  0  0  0  0  0  0  0
  -27.7250   -5.1510  -31.9460 O   0  0  0  0  0  0  0  0  0  0  0  0
  -28.3970   -5.2300  -30.8080 C   0  0  0  0  0  0  0  0  0  0  0  0
  -28.8140   -6.5170  -30.6440 N   0  0  0  0  0  0  0  0  0  0  0  0
  -28.8240   -9.5130  -31.2810 C   0  0  0  0  0  0  0  0  0  0  0  0
  -29.3200   -9.4230  -30.1370 O   0  0  0  0  0  0  0  0  0  0  0  0
  -28.7050  -10.9720  -31.7430 C   0  0  0  0  0  0  0  0  0  0  0  0
  -28.2830  -11.8810  -30.5600 C   0  0  0  0  0  0  0  0  0  0  0  0
  1  2  2  0
  1  3  1  0
  1  6  1  0
  2  4  1  0
  3  7  1  0
  4  5  1  0
  5  6  2  0
  7  9  1  0
  7  8  2  0
  9 10  1  0
M  END
>  <name>  (14) 
Car Nac Nd0 O_a Car Nac Cs2 .=O Cs3 Cs3

>  <indices>  (14) 
[0, 1, 2]

>  <tasks>  (14) 
probe_placing close_aromatic_ring close_aromatic_ring close_aromatic_ring ring_built build_to_Nd0 build_DB_to_Cs2 build_SB_to_Cs2

>  <prot_clashes>  (14) 
0

>  <NBS phar>  (14) 
0.1

>  <NBS_non-phar>  (14) 
0.5676261425018311

>  <NBS>  (14) 
0.667626142501831

>  <source_stage>  (14) 
scored

>  <source_iter>  (14) 
7

>  <source_parent_mol>  (14) 
1

>  <source_scenario>  (14) 
1 3 1 1 7 0 1

>  <source_rank_in_scored_call>  (14) 
46

>  <source_current_task>  (14) 
no_task

>  <scenario>  (14) 
1 3 1 1 7 0

>  <protected_ring_attachments>  (14) 
3,1,0,2|1,0,2;4,5,0,2|5,0,2

>  <current_task>  (14) 
no_task

>  <rotatable_bond_torsions>  (14) 
1,0,2,6;0,2,6,8

$$$$

     RDKit          3D

 10 10  0  0  0  0  0  0  0  0999 V2000
  -28.5100   -7.2290  -31.6150 C   0  0  0  0  0  0  0  0  0  0  0  0
  -27.8510   -6.4900  -32.5530 N   0  0  0  0  0  0  0  0  0  0  0  0
  -28.8070   -8.5930  -31.8810 N   0  0  0  0  0  0  0  0  0  0  0  0
  -27.6500   -5.3010  -32.0680 O   0  0  0  0  0  0  0  0  0  0  0  0
  -28.1520   -5.2310  -30.8450 C   0  0  0  0  0  0  0  0  0  0  0  0
  -28.7000   -6.4390  -30.5360 N   0  0  0  0  0  0  0  0  0  0  0  0
  -29.1870   -9.4340  -30.9560 C   0  0  0  0  0  0  0  0  0  0  0  0
  -29.4930   -9.2190  -29.7620 O   0  0  0  0  0  0  0  0  0  0  0  0
  -29.3240  -10.9170  -31.3270 C   0  0  0  0  0  0  0  0  0  0  0  0
  -27.9560  -11.5440  -31.7600 C   0  0  0  0  0  0  0  0  0  0  0  0
  1  2  2  0
  1  3  1  0
  1  6  1  0
  2  4  1  0
  3  7  1  0
  4  5  1  0
  5  6  2  0
  7  9  1  0
  7  8  2  0
  9 10  1  0
M  END
>  <name>  (15) 
Car Nac Nd0 O_a Car Nac Cs2 .=O Cs3 Cs3

>  <indices>  (15) 
[0, 1, 2]

>  <tasks>  (15) 
probe_placing close_aromatic_ring close_aromatic_ring close_aromatic_ring ring_built build_to_Nd0 build_DB_to_Cs2 build_SB_to_Cs2

>  <prot_clashes>  (15) 
1

>  <NBS phar>  (15) 
0.13999999999999999

>  <NBS_non-phar>  (15) 
0.5054678440093994

>  <NBS>  (15) 
0.6454678440093994

>  <source_stage>  (15) 
scored

>  <source_iter>  (15) 
7

>  <source_parent_mol>  (15) 
1

>  <source_scenario>  (15) 
1 3 1 1 7 0 1

>  <source_rank_in_scored_call>  (15) 
55

>  <source_current_task>  (15) 
no_task

>  <scenario>  (15) 
1 3 1 1 7 0

>  <protected_ring_attachments>  (15) 
3,1,0,2|1,0,2;4,5,0,2|5,0,2

>  <current_task>  (15) 
no_task

>  <rotatable_bond_torsions>  (15) 
1,0,2,6;0,2,6,8

$$$$

     RDKit          3D

 10 10  0  0  0  0  0  0  0  0999 V2000
  -28.5170   -7.2310  -31.6210 C   0  0  0  0  0  0  0  0  0  0  0  0
  -27.8270   -6.4610  -32.5100 N   0  0  0  0  0  0  0  0  0  0  0  0
  -28.7760   -8.5930  -31.9300 N   0  0  0  0  0  0  0  0  0  0  0  0
  -27.6700   -5.2790  -31.9910 O   0  0  0  0  0  0  0  0  0  0  0  0
  -28.2330   -5.2450  -30.7930 C   0  0  0  0  0  0  0  0  0  0  0  0
  -28.7740   -6.4680  -30.5370 N   0  0  0  0  0  0  0  0  0  0  0  0
  -29.1850   -9.4610  -31.0430 C   0  0  0  0  0  0  0  0  0  0  0  0
  -29.5530   -9.2780  -29.8610 O   0  0  0  0  0  0  0  0  0  0  0  0
  -29.2780  -10.9370  -31.4510 C   0  0  0  0  0  0  0  0  0  0  0  0
  -27.9320  -11.7270  -31.3720 C   0  0  0  0  0  0  0  0  0  0  0  0
  1  2  2  0
  1  3  1  0
  1  6  1  0
  2  4  1  0
  3  7  1  0
  4  5  1  0
  5  6  2  0
  7  9  1  0
  7  8  2  0
  9 10  1  0
M  END
>  <name>  (16) 
Car Nac Nd0 O_a Car Nac Cs2 .=O Cs3 Cs3

>  <indices>  (16) 
[0, 1, 2]

>  <tasks>  (16) 
probe_placing close_aromatic_ring close_aromatic_ring close_aromatic_ring ring_built build_to_Nd0 build_DB_to_Cs2 build_SB_to_Cs2

>  <prot_clashes>  (16) 
1

>  <NBS phar>  (16) 
0.13999999999999999

>  <NBS_non-phar>  (16) 
0.5005288124084473

>  <NBS>  (16) 
0.6405288124084473

>  <source_stage>  (16) 
scored

>  <source_iter>  (16) 
7

>  <source_parent_mol>  (16) 
1

>  <source_scenario>  (16) 
1 3 1 1 7 0 1

>  <source_rank_in_scored_call>  (16) 
57

>  <source_current_task>  (16) 
no_task

>  <scenario>  (16) 
1 3 1 1 7 0

>  <protected_ring_attachments>  (16) 
3,1,0,2|1,0,2;4,5,0,2|5,0,2

>  <current_task>  (16) 
no_task

>  <rotatable_bond_torsions>  (16) 
1,0,2,6;0,2,6,8

$$$$

     RDKit          3D

 10 10  0  0  0  0  0  0  0  0999 V2000
  -28.5230   -7.2620  -31.6600 C   0  0  0  0  0  0  0  0  0  0  0  0
  -27.9530   -6.5830  -32.6960 N   0  0  0  0  0  0  0  0  0  0  0  0
  -28.8610   -8.6320  -31.8240 N   0  0  0  0  0  0  0  0  0  0  0  0
  -27.6890   -5.3740  -32.2970 O   0  0  0  0  0  0  0  0  0  0  0  0
  -28.0640   -5.2340  -31.0340 C   0  0  0  0  0  0  0  0  0  0  0  0
  -28.5940   -6.4150  -30.6100 N   0  0  0  0  0  0  0  0  0  0  0  0
  -29.1560   -9.4180  -30.8230 C   0  0  0  0  0  0  0  0  0  0  0  0
  -29.3390   -9.1390  -29.6170 O   0  0  0  0  0  0  0  0  0  0  0  0
  -29.3490  -10.9160  -31.1010 C   0  0  0  0  0  0  0  0  0  0  0  0
  -28.0550  -11.4970  -31.7200 C   0  0  0  0  0  0  0  0  0  0  0  0
  1  2  2  0
  1  3  1  0
  1  6  1  0
  2  4  1  0
  3  7  1  0
  4  5  1  0
  5  6  2  0
  7  9  1  0
  7  8  2  0
  9 10  1  0
M  END
>  <name>  (17) 
Car Nac Nd0 O_a Car Nac Cs2 .=O Cs3 Cs3

>  <indices>  (17) 
[0, 1, 2]

>  <tasks>  (17) 
probe_placing close_aromatic_ring close_aromatic_ring close_aromatic_ring ring_built build_to_Nd0 build_DB_to_Cs2 build_SB_to_Cs2

>  <prot_clashes>  (17) 
1

>  <NBS phar>  (17) 
0.12

>  <NBS_non-phar>  (17) 
0.5021756649017334

>  <NBS>  (17) 
0.6221756649017334

>  <source_stage>  (17) 
scored

>  <source_iter>  (17) 
7

>  <source_parent_mol>  (17) 
1

>  <source_scenario>  (17) 
1 3 1 1 7 0 1

>  <source_rank_in_scored_call>  (17) 
62

>  <source_current_task>  (17) 
no_task

>  <scenario>  (17) 
1 3 1 1 7 0

>  <protected_ring_attachments>  (17) 
3,1,0,2|1,0,2;4,5,0,2|5,0,2

>  <current_task>  (17) 
no_task

>  <rotatable_bond_torsions>  (17) 
1,0,2,6;0,2,6,8

$$$$

     RDKit          3D

 10 10  0  0  0  0  0  0  0  0999 V2000
  -28.3130   -7.1000  -31.5120 C   0  0  0  0  0  0  0  0  0  0  0  0
  -27.6860   -6.4290  -32.5200 N   0  0  0  0  0  0  0  0  0  0  0  0
  -28.3870   -8.5180  -31.5560 N   0  0  0  0  0  0  0  0  0  0  0  0
  -27.7000   -5.1600  -32.2360 O   0  0  0  0  0  0  0  0  0  0  0  0
  -28.3120   -4.9730  -31.0770 C   0  0  0  0  0  0  0  0  0  0  0  0
  -28.7070   -6.1850  -30.6000 N   0  0  0  0  0  0  0  0  0  0  0  0
  -28.7230   -9.2480  -30.5260 C   0  0  0  0  0  0  0  0  0  0  0  0
  -29.1600   -8.8940  -29.4090 O   0  0  0  0  0  0  0  0  0  0  0  0
  -28.6140  -10.7740  -30.6430 C   0  0  0  0  0  0  0  0  0  0  0  0
  -29.9340  -11.4890  -30.5420 C   0  0  0  0  0  0  0  0  0  0  0  0
  1  2  2  0
  1  3  1  0
  1  6  1  0
  2  4  1  0
  3  7  1  0
  4  5  1  0
  5  6  2  0
  7  9  1  0
  7  8  2  0
  9 10  1  0
M  END
>  <name>  (18) 
Car Nac Nd0 O_a Car Nac Cs2 .=O Cs3 Cs3

>  <indices>  (18) 
[0, 1, 2]

>  <tasks>  (18) 
probe_placing close_aromatic_ring close_aromatic_ring close_aromatic_ring ring_built build_to_Nd0 build_DB_to_Cs2 build_SB_to_Cs2

>  <prot_clashes>  (18) 
1

>  <NBS phar>  (18) 
0.1

>  <NBS_non-phar>  (18) 
0.5009848117828369

>  <NBS>  (18) 
0.6009848117828369

>  <source_stage>  (18) 
scored

>  <source_iter>  (18) 
7

>  <source_parent_mol>  (18) 
1

>  <source_scenario>  (18) 
1 3 1 1 7 0 1

>  <source_rank_in_scored_call>  (18) 
67

>  <source_current_task>  (18) 
no_task

>  <scenario>  (18) 
1 3 1 1 7 0

>  <protected_ring_attachments>  (18) 
3,1,0,2|1,0,2;4,5,0,2|5,0,2

>  <current_task>  (18) 
no_task

>  <rotatable_bond_torsions>  (18) 
1,0,2,6;0,2,6,8

$$$$

     RDKit          3D

 16 17  0  0  0  0  0  0  0  0999 V2000
  -27.8590   -7.4060  -31.2470 C   0  0  0  0  0  0  0  0  0  0  0  0
  -27.6890   -6.7660  -32.4380 N   0  0  0  0  0  0  0  0  0  0  0  0
  -27.4950   -8.8560  -31.1020 N   0  0  0  0  0  0  0  0  0  0  0  0
  -28.0550   -5.4800  -32.2900 C   0  0  0  0  0  0  0  0  0  0  0  0
  -28.4530   -5.3400  -30.9970 N   0  0  0  0  0  0  0  0  0  0  0  0
  -28.3340   -6.4980  -30.3720 N   0  0  0  0  0  0  0  0  0  0  0  0
  -28.3760   -6.9130  -28.9470 C   0  0  0  0  0  0  0  0  0  0  0  0
  -28.4060   -9.7490  -31.4210 C   0  0  0  0  0  0  0  0  0  0  0  0
  -29.5080   -9.6750  -31.9660 O   0  0  0  0  0  0  0  0  0  0  0  0
  -28.0610  -11.2340  -31.0880 C   0  0  0  0  0  0  0  0  0  0  0  0
  -28.9140  -11.7680  -29.8530 C   0  0  0  0  0  0  0  0  0  0  0  0
  -28.2250  -12.2060  -28.7310 C   0  0  0  0  0  0  0  0  0  0  0  0
  -28.8800  -12.7050  -27.6220 C   0  0  0  0  0  0  0  0  0  0  0  0
  -30.2690  -12.7580  -27.6630 C   0  0  0  0  0  0  0  0  0  0  0  0
  -30.9560  -12.3220  -28.7830 C   0  0  0  0  0  0  0  0  0  0  0  0
  -30.2890  -11.8240  -29.8850 C   0  0  0  0  0  0  0  0  0  0  0  0
  1  2  2  0
  1  3  1  0
  1  6  1  0
  2  4  1  0
  3  8  1  0
  4  5  2  0
  5  6  1  0
  6  7  1  0
  8  9  2  0
  8 10  1  0
 10 11  1  0
 11 16  1  0
 11 12  2  0
 12 13  1  0
 13 14  2  0
 14 15  1  0
 15 16  2  0
M  END
>  <name>  (19) 
Car Nac Nd0 Car Nac Nac Cs3 Cs2 .=O Cs3 Car Car Car Car Car Car

>  <indices>  (19) 
[0, 1, 2]

>  <tasks>  (19) 
probe_placing close_aromatic_ring close_aromatic_ring close_aromatic_ring ring_built build_to_Nac build_to_Nd0 build_DB_to_Cs2 build_SB_to_Cs2 no_task close_aromatic_ring close_aromatic_ring close_aromatic_ring close_aromatic_ring

>  <prot_clashes>  (19) 
6

>  <NBS phar>  (19) 
0.32

>  <NBS_non-phar>  (19) 
0.5673905611038208

>  <NBS>  (19) 
0.8873905611038209

>  <source_stage>  (19) 
scored

>  <source_iter>  (19) 
13

>  <source_parent_mol>  (19) 
2

>  <source_scenario>  (19) 
1 2 3 1 0 0 0 1 7 0 2 2 2

>  <source_rank_in_scored_call>  (19) 
0

>  <source_current_task>  (19) 
close_aromatic_ring

>  <scenario>  (19) 
1 2 3 1 0 0 0 1 7 0 2 2

>  <protected_ring_attachments>  (19) 
3,1,0,2|1,0,2;4,5,0,2|5,0,2

>  <current_task>  (19) 
no_task

>  <rotatable_bond_torsions>  (19) 
1,0,2,7;0,2,7,9;2,7,9,10;7,9,10,11;10,11,12,13

$$$$

     RDKit          3D

 16 17  0  0  0  0  0  0  0  0999 V2000
  -27.8600   -7.4190  -31.2570 C   0  0  0  0  0  0  0  0  0  0  0  0
  -27.6880   -6.7660  -32.4440 N   0  0  0  0  0  0  0  0  0  0  0  0
  -27.4960   -8.8690  -31.1260 N   0  0  0  0  0  0  0  0  0  0  0  0
  -28.0550   -5.4830  -32.2830 C   0  0  0  0  0  0  0  0  0  0  0  0
  -28.4530   -5.3530  -30.9870 N   0  0  0  0  0  0  0  0  0  0  0  0
  -28.3350   -6.5180  -30.3740 N   0  0  0  0  0  0  0  0  0  0  0  0
  -28.3780   -6.9480  -28.9530 C   0  0  0  0  0  0  0  0  0  0  0  0
  -28.4080   -9.7590  -31.4560 C   0  0  0  0  0  0  0  0  0  0  0  0
  -29.5100   -9.6780  -31.9990 O   0  0  0  0  0  0  0  0  0  0  0  0
  -28.0650  -11.2490  -31.1350 C   0  0  0  0  0  0  0  0  0  0  0  0
  -28.8820  -11.8320  -29.8330 C   0  0  0  0  0  0  0  0  0  0  0  0
  -30.2090  -11.4740  -29.7320 C   0  0  0  0  0  0  0  0  0  0  0  0
  -28.2250  -12.5890  -28.8860 C   0  0  0  0  0  0  0  0  0  0  0  0
  -28.9360  -13.0090  -27.7800 C   0  0  0  0  0  0  0  0  0  0  0  0
  -30.2640  -12.6540  -27.6760 C   0  0  0  0  0  0  0  0  0  0  0  0
  -30.9200  -11.8930  -28.6290 C   0  0  0  0  0  0  0  0  0  0  0  0
  1  2  2  0
  1  3  1  0
  1  6  1  0
  2  4  1  0
  3  8  1  0
  4  5  2  0
  5  6  1  0
  6  7  1  0
  8  9  2  0
  8 10  1  0
 10 11  1  0
 11 12  2  0
 11 13  1  0
 12 16  1  0
 13 14  2  0
 14 15  1  0
 15 16  2  0
M  END
>  <name>  (20) 
Car Nac Nd0 Car Nac Nac Cs3 Cs2 .=O Cs3 Car Car Car Car Car Car

>  <indices>  (20) 
[0, 1, 2]

>  <tasks>  (20) 
probe_placing close_aromatic_ring close_aromatic_ring close_aromatic_ring ring_built build_to_Nac build_to_Nd0 build_DB_to_Cs2 build_SB_to_Cs2 no_task close_aromatic_ring close_aromatic_ring close_aromatic_ring close_aromatic_ring

>  <prot_clashes>  (20) 
5

>  <NBS phar>  (20) 
0.3

>  <NBS_non-phar>  (20) 
0.5525547862052917

>  <NBS>  (20) 
0.8525547862052918

>  <source_stage>  (20) 
scored

>  <source_iter>  (20) 
13

>  <source_parent_mol>  (20) 
4

>  <source_scenario>  (20) 
1 2 3 1 0 0 0 1 7 1 1 3 4

>  <source_rank_in_scored_call>  (20) 
0

>  <source_current_task>  (20) 
close_aromatic_ring

>  <scenario>  (20) 
1 2 3 1 0 0 0 1 7 1 1 3

>  <protected_ring_attachments>  (20) 
3,1,0,2|1,0,2;4,5,0,2|5,0,2

>  <current_task>  (20) 
no_task

>  <rotatable_bond_torsions>  (20) 
1,0,2,7;0,2,7,9;2,7,9,10;7,9,10,12;9,10,12,13

$$$$

     RDKit          3D

 16 17  0  0  0  0  0  0  0  0999 V2000
  -27.8850   -7.4250  -31.2930 C   0  0  0  0  0  0  0  0  0  0  0  0
  -27.6880   -6.7590  -32.4660 N   0  0  0  0  0  0  0  0  0  0  0  0
  -27.5150   -8.8750  -31.1710 N   0  0  0  0  0  0  0  0  0  0  0  0
  -28.0680   -5.4800  -32.3010 C   0  0  0  0  0  0  0  0  0  0  0  0
  -28.5010   -5.3680  -31.0140 N   0  0  0  0  0  0  0  0  0  0  0  0
  -28.3910   -6.5380  -30.4130 N   0  0  0  0  0  0  0  0  0  0  0  0
  -28.4650   -6.9860  -28.9970 C   0  0  0  0  0  0  0  0  0  0  0  0
  -28.4120   -9.7670  -31.5340 C   0  0  0  0  0  0  0  0  0  0  0  0
  -29.5010   -9.6870  -32.1050 O   0  0  0  0  0  0  0  0  0  0  0  0
  -28.0660  -11.2580  -31.2220 C   0  0  0  0  0  0  0  0  0  0  0  0
  -28.9030  -11.7660  -30.0610 C   0  0  0  0  0  0  0  0  0  0  0  0
  -30.2240  -11.3620  -29.8600 C   0  0  0  0  0  0  0  0  0  0  0  0
  -30.9200  -11.9910  -28.8610 C   0  0  0  0  0  0  0  0  0  0  0  0
  -30.4020  -12.9810  -28.0590 C   0  0  0  0  0  0  0  0  0  0  0  0
  -28.3950  -12.7470  -29.2630 C   0  0  0  0  0  0  0  0  0  0  0  0
  -29.0900  -13.3810  -28.2610 C   0  0  0  0  0  0  0  0  0  0  0  0
  1  2  2  0
  1  3  1  0
  1  6  1  0
  2  4  1  0
  3  8  1  0
  4  5  2  0
  5  6  1  0
  6  7  1  0
  8  9  2  0
  8 10  1  0
 10 11  1  0
 11 12  2  0
 11 15  1  0
 12 13  1  0
 13 14  2  0
 14 16  1  0
 15 16  2  0
M  END
>  <name>  (21) 
Car Nac Nd0 Car Nac Nac Cs3 Cs2 .=O Cs3 Car Car Car Car Car Car

>  <indices>  (21) 
[0, 1, 2]

>  <tasks>  (21) 
probe_placing close_aromatic_ring close_aromatic_ring close_aromatic_ring ring_built build_to_Nac build_to_Nd0 build_DB_to_Cs2 build_SB_to_Cs2 no_task close_aromatic_ring close_aromatic_ring close_aromatic_ring close_aromatic_ring

>  <prot_clashes>  (21) 
6

>  <NBS phar>  (21) 
0.2

>  <NBS_non-phar>  (21) 
0.61616450548172

>  <NBS>  (21) 
0.8161645054817199

>  <source_stage>  (21) 
scored

>  <source_iter>  (21) 
13

>  <source_parent_mol>  (21) 
0

>  <source_scenario>  (21) 
1 2 3 1 0 0 0 1 7 1 5 2 0

>  <source_rank_in_scored_call>  (21) 
0

>  <source_current_task>  (21) 
close_aromatic_ring

>  <scenario>  (21) 
1 2 3 1 0 0 0 1 7 1 5 2

>  <protected_ring_attachments>  (21) 
3,1,0,2|1,0,2;4,5,0,2|5,0,2

>  <current_task>  (21) 
no_task

>  <rotatable_bond_torsions>  (21) 
1,0,2,7;0,2,7,9;2,7,9,10;7,9,10,11;10,11,12,13

$$$$

     RDKit          3D

 16 17  0  0  0  0  0  0  0  0999 V2000
  -27.8840   -7.4240  -31.2920 C   0  0  0  0  0  0  0  0  0  0  0  0
  -27.6890   -6.7600  -32.4680 N   0  0  0  0  0  0  0  0  0  0  0  0
  -27.5210   -8.8750  -31.1680 N   0  0  0  0  0  0  0  0  0  0  0  0
  -28.0620   -5.4800  -32.3030 C   0  0  0  0  0  0  0  0  0  0  0  0
  -28.4890   -5.3630  -31.0150 N   0  0  0  0  0  0  0  0  0  0  0  0
  -28.3820   -6.5330  -30.4120 N   0  0  0  0  0  0  0  0  0  0  0  0
  -28.4540   -6.9770  -28.9950 C   0  0  0  0  0  0  0  0  0  0  0  0
  -28.4230   -9.7630  -31.5260 C   0  0  0  0  0  0  0  0  0  0  0  0
  -29.5140   -9.6790  -32.0930 O   0  0  0  0  0  0  0  0  0  0  0  0
  -28.0830  -11.2560  -31.2130 C   0  0  0  0  0  0  0  0  0  0  0  0
  -28.9110  -11.8330  -29.9540 C   0  0  0  0  0  0  0  0  0  0  0  0
  -30.2430  -11.4930  -29.8890 C   0  0  0  0  0  0  0  0  0  0  0  0
  -30.9540  -11.9840  -28.7970 C   0  0  0  0  0  0  0  0  0  0  0  0
  -30.3800  -12.7640  -27.8320 C   0  0  0  0  0  0  0  0  0  0  0  0
  -28.3290  -12.6160  -28.9870 C   0  0  0  0  0  0  0  0  0  0  0  0
  -29.0460  -13.0990  -27.9080 C   0  0  0  0  0  0  0  0  0  0  0  0
  1  2  2  0
  1  3  1  0
  1  6  1  0
  2  4  1  0
  3  8  1  0
  4  5  2  0
  5  6  1  0
  6  7  1  0
  8  9  2  0
  8 10  1  0
 10 11  1  0
 11 12  2  0
 11 15  1  0
 12 13  1  0
 13 14  2  0
 14 16  1  0
 15 16  2  0
M  END
>  <name>  (22) 
Car Nac Nd0 Car Nac Nac Cs3 Cs2 .=O Cs3 Car Car Car Car Car Car

>  <indices>  (22) 
[0, 1, 2]

>  <tasks>  (22) 
probe_placing close_aromatic_ring close_aromatic_ring close_aromatic_ring ring_built build_to_Nac build_to_Nd0 build_DB_to_Cs2 build_SB_to_Cs2 no_task close_aromatic_ring close_aromatic_ring close_aromatic_ring close_aromatic_ring

>  <prot_clashes>  (22) 
5

>  <NBS phar>  (22) 
0.2

>  <NBS_non-phar>  (22) 
0.5807647705078125

>  <NBS>  (22) 
0.7807647705078125

>  <source_stage>  (22) 
scored

>  <source_iter>  (22) 
13

>  <source_parent_mol>  (22) 
0

>  <source_scenario>  (22) 
1 2 3 1 0 0 0 1 7 1 5 2 0

>  <source_rank_in_scored_call>  (22) 
1

>  <source_current_task>  (22) 
close_aromatic_ring

>  <scenario>  (22) 
1 2 3 1 0 0 0 1 7 1 5 2

>  <protected_ring_attachments>  (22) 
3,1,0,2|1,0,2;4,5,0,2|5,0,2

>  <current_task>  (22) 
no_task

>  <rotatable_bond_torsions>  (22) 
1,0,2,7;0,2,7,9;2,7,9,10;7,9,10,11;10,11,12,13

$$$$

     RDKit          3D

 16 17  0  0  0  0  0  0  0  0999 V2000
  -27.8870   -7.4280  -31.3060 C   0  0  0  0  0  0  0  0  0  0  0  0
  -27.6880   -6.7650  -32.4810 N   0  0  0  0  0  0  0  0  0  0  0  0
  -27.5250   -8.8790  -31.1800 N   0  0  0  0  0  0  0  0  0  0  0  0
  -28.0630   -5.4840  -32.3180 C   0  0  0  0  0  0  0  0  0  0  0  0
  -28.4940   -5.3680  -31.0310 N   0  0  0  0  0  0  0  0  0  0  0  0
  -28.3890   -6.5370  -30.4270 N   0  0  0  0  0  0  0  0  0  0  0  0
  -28.4640   -6.9800  -29.0100 C   0  0  0  0  0  0  0  0  0  0  0  0
  -28.4250   -9.7670  -31.5400 C   0  0  0  0  0  0  0  0  0  0  0  0
  -29.5150   -9.6840  -32.1100 O   0  0  0  0  0  0  0  0  0  0  0  0
  -28.0860  -11.2590  -31.2250 C   0  0  0  0  0  0  0  0  0  0  0  0
  -29.0460  -11.9970  -30.1300 C   0  0  0  0  0  0  0  0  0  0  0  0
  -30.3050  -11.4800  -29.8890 C   0  0  0  0  0  0  0  0  0  0  0  0
  -30.9960  -11.8680  -28.7570 C   0  0  0  0  0  0  0  0  0  0  0  0
  -30.4380  -12.7720  -27.8580 C   0  0  0  0  0  0  0  0  0  0  0  0
  -29.1760  -13.2840  -28.1100 C   0  0  0  0  0  0  0  0  0  0  0  0
  -28.4850  -12.9080  -29.2250 C   0  0  0  0  0  0  0  0  0  0  0  0
  1  2  2  0
  1  3  1  0
  1  6  1  0
  2  4  1  0
  3  8  1  0
  4  5  2  0
  5  6  1  0
  6  7  1  0
  8  9  2  0
  8 10  1  0
 10 11  1  0
 11 12  2  0
 11 16  1  0
 12 13  1  0
 13 14  2  0
 14 15  1  0
 15 16  2  0
M  END
>  <name>  (23) 
Car Nac Nd0 Car Nac Nac Cs3 Cs2 .=O Cs3 Car Car Car Car Car Car

>  <indices>  (23) 
[0, 1, 2]

>  <tasks>  (23) 
probe_placing close_aromatic_ring close_aromatic_ring close_aromatic_ring ring_built build_to_Nac build_to_Nd0 build_DB_to_Cs2 build_SB_to_Cs2 no_task close_aromatic_ring close_aromatic_ring close_aromatic_ring close_aromatic_ring

>  <prot_clashes>  (23) 
6

>  <NBS phar>  (23) 
0.2

>  <NBS_non-phar>  (23) 
0.5880820155143738

>  <NBS>  (23) 
0.7880820155143737

>  <source_stage>  (23) 
scored

>  <source_iter>  (23) 
13

>  <source_parent_mol>  (23) 
1

>  <source_scenario>  (23) 
1 2 3 1 0 0 0 1 7 1 5 2 1

>  <source_rank_in_scored_call>  (23) 
0

>  <source_current_task>  (23) 
close_aromatic_ring

>  <scenario>  (23) 
1 2 3 1 0 0 0 1 7 1 5 2

>  <protected_ring_attachments>  (23) 
3,1,0,2|1,0,2;4,5,0,2|5,0,2

>  <current_task>  (23) 
no_task

>  <rotatable_bond_torsions>  (23) 
1,0,2,7;0,2,7,9;2,7,9,10;7,9,10,11;10,11,12,13

$$$$

     RDKit          3D

 16 17  0  0  0  0  0  0  0  0999 V2000
  -27.8850   -7.4230  -31.2900 C   0  0  0  0  0  0  0  0  0  0  0  0
  -27.6880   -6.7670  -32.4700 N   0  0  0  0  0  0  0  0  0  0  0  0
  -27.5310   -8.8760  -31.1580 N   0  0  0  0  0  0  0  0  0  0  0  0
  -28.0540   -5.4830  -32.3110 C   0  0  0  0  0  0  0  0  0  0  0  0
  -28.4780   -5.3580  -31.0220 N   0  0  0  0  0  0  0  0  0  0  0  0
  -28.3760   -6.5240  -30.4130 N   0  0  0  0  0  0  0  0  0  0  0  0
  -28.4460   -6.9590  -28.9930 C   0  0  0  0  0  0  0  0  0  0  0  0
  -28.4380   -9.7600  -31.5090 C   0  0  0  0  0  0  0  0  0  0  0  0
  -29.5300   -9.6730  -32.0730 O   0  0  0  0  0  0  0  0  0  0  0  0
  -28.1060  -11.2530  -31.1880 C   0  0  0  0  0  0  0  0  0  0  0  0
  -28.9340  -11.8210  -29.9210 C   0  0  0  0  0  0  0  0  0  0  0  0
  -30.2680  -11.4850  -29.8180 C   0  0  0  0  0  0  0  0  0  0  0  0
  -31.0200  -11.9320  -28.7700 C   0  0  0  0  0  0  0  0  0  0  0  0
  -30.4140  -12.7250  -27.8210 C   0  0  0  0  0  0  0  0  0  0  0  0
  -29.0670  -13.0820  -27.8980 C   0  0  0  0  0  0  0  0  0  0  0  0
  -28.3210  -12.6150  -28.9740 C   0  0  0  0  0  0  0  0  0  0  0  0
  1  2  2  0
  1  3  1  0
  1  6  1  0
  2  4  1  0
  3  8  1  0
  4  5  2  0
  5  6  1  0
  6  7  1  0
  8  9  2  0
  8 10  1  0
 10 11  1  0
 11 12  2  0
 11 16  1  0
 12 13  1  0
 13 14  2  0
 14 15  1  0
 15 16  2  0
M  END
>  <name>  (24) 
Car Nac Nd0 Car Nac Nac Cs3 Cs2 .=O Cs3 Car Car Car Car Car Car

>  <indices>  (24) 
[0, 1, 2]

>  <tasks>  (24) 
probe_placing close_aromatic_ring close_aromatic_ring close_aromatic_ring ring_built build_to_Nac build_to_Nd0 build_DB_to_Cs2 build_SB_to_Cs2 no_task close_aromatic_ring close_aromatic_ring close_aromatic_ring close_aromatic_ring

>  <prot_clashes>  (24) 
5

>  <NBS phar>  (24) 
0.2

>  <NBS_non-phar>  (24) 
0.5517693758010864

>  <NBS>  (24) 
0.7517693758010864

>  <source_stage>  (24) 
scored

>  <source_iter>  (24) 
13

>  <source_parent_mol>  (24) 
1

>  <source_scenario>  (24) 
1 2 3 1 0 0 0 1 7 1 5 2 1

>  <source_rank_in_scored_call>  (24) 
1

>  <source_current_task>  (24) 
close_aromatic_ring

>  <scenario>  (24) 
1 2 3 1 0 0 0 1 7 1 5 2

>  <protected_ring_attachments>  (24) 
3,1,0,2|1,0,2;4,5,0,2|5,0,2

>  <current_task>  (24) 
no_task

>  <rotatable_bond_torsions>  (24) 
1,0,2,7;0,2,7,9;2,7,9,10;7,9,10,11;10,11,12,13

$$$$

     RDKit          3D

 16 17  0  0  0  0  0  0  0  0999 V2000
  -27.8840   -7.3550  -31.2930 C   0  0  0  0  0  0  0  0  0  0  0  0
  -27.6870   -6.7770  -32.5120 N   0  0  0  0  0  0  0  0  0  0  0  0
  -27.5250   -8.7940  -31.0650 N   0  0  0  0  0  0  0  0  0  0  0  0
  -28.0540   -5.4860  -32.4390 C   0  0  0  0  0  0  0  0  0  0  0  0
  -28.4810   -5.2750  -31.1630 N   0  0  0  0  0  0  0  0  0  0  0  0
  -28.3770   -6.4010  -30.4760 N   0  0  0  0  0  0  0  0  0  0  0  0
  -28.4510   -6.7430  -29.0330 C   0  0  0  0  0  0  0  0  0  0  0  0
  -28.4320   -9.7030  -31.3580 C   0  0  0  0  0  0  0  0  0  0  0  0
  -29.5220   -9.6540  -31.9290 O   0  0  0  0  0  0  0  0  0  0  0  0
  -28.0970  -11.1680  -30.9390 C   0  0  0  0  0  0  0  0  0  0  0  0
  -28.8670  -11.6720  -29.6190 C   0  0  0  0  0  0  0  0  0  0  0  0
  -28.8390  -12.9870  -29.1900 C   0  0  0  0  0  0  0  0  0  0  0  0
  -29.5920  -10.6960  -28.9610 C   0  0  0  0  0  0  0  0  0  0  0  0
  -29.5870  -13.2750  -28.0520 C   0  0  0  0  0  0  0  0  0  0  0  0
  -30.3130  -12.3050  -27.3910 C   0  0  0  0  0  0  0  0  0  0  0  0
  -30.3260  -10.9970  -27.8370 C   0  0  0  0  0  0  0  0  0  0  0  0
  1  2  2  0
  1  3  1  0
  1  6  1  0
  2  4  1  0
  3  8  1  0
  4  5  2  0
  5  6  1  0
  6  7  1  0
  8  9  2  0
  8 10  1  0
 10 11  1  0
 11 12  2  0
 11 13  1  0
 12 14  1  0
 13 16  2  0
 14 15  2  0
 15 16  1  0
M  END
>  <name>  (25) 
Car Nac Nd0 Car Nac Nac Cs3 Cs2 .=O Cs3 Car Car Car Car Car Car

>  <indices>  (25) 
[0, 1, 2]

>  <tasks>  (25) 
probe_placing close_aromatic_ring close_aromatic_ring close_aromatic_ring ring_built build_to_Nac build_to_Nd0 build_DB_to_Cs2 build_SB_to_Cs2 no_task close_aromatic_ring close_aromatic_ring close_aromatic_ring close_aromatic_ring

>  <prot_clashes>  (25) 
5

>  <NBS phar>  (25) 
0.22000000000000003

>  <NBS_non-phar>  (25) 
0.5374894738197327

>  <NBS>  (25) 
0.7574894738197326

>  <source_stage>  (25) 
scored

>  <source_iter>  (25) 
13

>  <source_parent_mol>  (25) 
1

>  <source_scenario>  (25) 
1 2 3 1 0 0 0 1 7 2 1 1 1

>  <source_rank_in_scored_call>  (25) 
1

>  <source_current_task>  (25) 
close_aromatic_ring

>  <scenario>  (25) 
1 2 3 1 0 0 0 1 7 2 1 1

>  <protected_ring_attachments>  (25) 
3,1,0,2|1,0,2;4,5,0,2|5,0,2

>  <current_task>  (25) 
no_task

>  <rotatable_bond_torsions>  (25) 
1,0,2,7;0,2,7,9;2,7,9,10;7,9,10,11;9,10,11,13

$$$$

     RDKit          3D

 16 17  0  0  0  0  0  0  0  0999 V2000
  -27.9200   -7.3240  -31.2840 C   0  0  0  0  0  0  0  0  0  0  0  0
  -27.6880   -6.7800  -32.5130 N   0  0  0  0  0  0  0  0  0  0  0  0
  -27.5790   -8.7600  -31.0110 N   0  0  0  0  0  0  0  0  0  0  0  0
  -28.0450   -5.4840  -32.4830 C   0  0  0  0  0  0  0  0  0  0  0  0
  -28.5010   -5.2380  -31.2230 N   0  0  0  0  0  0  0  0  0  0  0  0
  -28.4250   -6.3470  -30.5060 N   0  0  0  0  0  0  0  0  0  0  0  0
  -28.5370   -6.6510  -29.0560 C   0  0  0  0  0  0  0  0  0  0  0  0
  -28.4870   -9.6680  -31.3040 C   0  0  0  0  0  0  0  0  0  0  0  0
  -29.5620   -9.6270  -31.9040 O   0  0  0  0  0  0  0  0  0  0  0  0
  -28.1750  -11.1260  -30.8400 C   0  0  0  0  0  0  0  0  0  0  0  0
  -28.9560  -11.5590  -29.5780 C   0  0  0  0  0  0  0  0  0  0  0  0
  -29.0230  -12.8400  -29.0210 C   0  0  0  0  0  0  0  0  0  0  0  0
  -29.6920  -10.5820  -28.9450 C   0  0  0  0  0  0  0  0  0  0  0  0
  -30.4510  -10.8550  -27.8260 C   0  0  0  0  0  0  0  0  0  0  0  0
  -30.5070  -12.1400  -27.2830 C   0  0  0  0  0  0  0  0  0  0  0  0
  -29.7720  -13.1270  -27.9120 C   0  0  0  0  0  0  0  0  0  0  0  0
  1  2  2  0
  1  3  1  0
  1  6  1  0
  2  4  1  0
  3  8  1  0
  4  5  2  0
  5  6  1  0
  6  7  1  0
  8  9  2  0
  8 10  1  0
 10 11  1  0
 11 12  2  0
 11 13  1  0
 12 16  1  0
 13 14  2  0
 14 15  1  0
 15 16  2  0
M  END
>  <name>  (26) 
Car Nac Nd0 Car Nac Nac Cs3 Cs2 .=O Cs3 Car Car Car Car Car Car

>  <indices>  (26) 
[0, 1, 2]

>  <tasks>  (26) 
probe_placing close_aromatic_ring close_aromatic_ring close_aromatic_ring ring_built build_to_Nac build_to_Nd0 build_DB_to_Cs2 build_SB_to_Cs2 no_task close_aromatic_ring close_aromatic_ring close_aromatic_ring close_aromatic_ring

>  <prot_clashes>  (26) 
5

>  <NBS phar>  (26) 
0.22000000000000003

>  <NBS_non-phar>  (26) 
0.5278225541114807

>  <NBS>  (26) 
0.7478225541114807

>  <source_stage>  (26) 
scored

>  <source_iter>  (26) 
13

>  <source_parent_mol>  (26) 
2

>  <source_scenario>  (26) 
1 2 3 1 0 0 0 1 7 2 1 4 2

>  <source_rank_in_scored_call>  (26) 
1

>  <source_current_task>  (26) 
close_aromatic_ring

>  <scenario>  (26) 
1 2 3 1 0 0 0 1 7 2 1 4

>  <protected_ring_attachments>  (26) 
3,1,0,2|1,0,2;4,5,0,2|5,0,2

>  <current_task>  (26) 
no_task

>  <rotatable_bond_torsions>  (26) 
1,0,2,7;0,2,7,9;2,7,9,10;7,9,10,12;10,12,13,14

$$$$

     RDKit          3D

 17 18  0  0  0  0  0  0  0  0999 V2000
  -27.9200   -7.3240  -31.2850 C   0  0  0  0  0  0  0  0  0  0  0  0
  -27.6880   -6.7790  -32.5130 N   0  0  0  0  0  0  0  0  0  0  0  0
  -27.5790   -8.7600  -31.0120 N   0  0  0  0  0  0  0  0  0  0  0  0
  -28.0450   -5.4830  -32.4820 C   0  0  0  0  0  0  0  0  0  0  0  0
  -28.5000   -5.2380  -31.2220 N   0  0  0  0  0  0  0  0  0  0  0  0
  -28.4230   -6.3470  -30.5060 N   0  0  0  0  0  0  0  0  0  0  0  0
  -28.5340   -6.6520  -29.0550 C   0  0  0  0  0  0  0  0  0  0  0  0
  -28.4880   -9.6680  -31.3040 C   0  0  0  0  0  0  0  0  0  0  0  0
  -29.5630   -9.6250  -31.9040 O   0  0  0  0  0  0  0  0  0  0  0  0
  -28.1760  -11.1260  -30.8420 C   0  0  0  0  0  0  0  0  0  0  0  0
  -28.9790  -11.5130  -29.5620 C   0  0  0  0  0  0  0  0  0  0  0  0
  -28.8940  -12.9080  -29.0780 C   0  0  0  0  0  0  0  0  0  0  0  0
  -29.6970  -10.5690  -28.9820 C   0  0  0  0  0  0  0  0  0  0  0  0
  -30.4720  -10.8710  -27.7850 C   0  0  0  0  0  0  0  0  0  0  0  0
  -30.4600  -12.0860  -27.2740 C   0  0  0  0  0  0  0  0  0  0  0  0
  -29.6810  -13.1150  -27.9050 N   0  0  0  0  0  0  0  0  0  0  0  0
  -28.2170  -13.7960  -29.6280 O   0  0  0  0  0  0  0  0  0  0  0  0
  1  2  2  0
  1  3  1  0
  1  6  1  0
  2  4  1  0
  3  8  1  0
  4  5  2  0
  5  6  1  0
  6  7  1  0
  8  9  2  0
  8 10  1  0
 10 11  1  0
 11 12  1  0
 11 13  2  0
 12 17  2  0
 12 16  1  0
 13 14  1  0
 14 15  2  0
 15 16  1  0
M  END
>  <name>  (27) 
Car Nac Nd0 Car Nac Nac Cs3 Cs2 .=O Cs3 Car Car Car Car Car Nd0 .=O

>  <indices>  (27) 
[0, 1, 2]

>  <tasks>  (27) 
probe_placing close_aromatic_ring close_aromatic_ring close_aromatic_ring ring_built build_to_Nac build_to_Nd0 build_DB_to_Cs2 build_SB_to_Cs2 no_task close_aromatic_ring close_aromatic_ring close_aromatic_ring close_aromatic_ring close_aromatic_ring

>  <prot_clashes>  (27) 
5

>  <NBS phar>  (27) 
0.22000000000000003

>  <NBS_non-phar>  (27) 
0.5041418636546415

>  <NBS>  (27) 
0.7241418636546415

>  <source_stage>  (27) 
scored

>  <source_iter>  (27) 
14

>  <source_parent_mol>  (27) 
0

>  <source_scenario>  (27) 
1 2 3 1 0 0 0 1 7 2 1 4 2 0

>  <source_rank_in_scored_call>  (27) 
6

>  <source_current_task>  (27) 
fix_Car

>  <scenario>  (27) 
1 2 3 1 0 0 0 1 7 2 1 4 2

>  <protected_ring_attachments>  (27) 
3,1,0,2|1,0,2;4,5,0,2|5,0,2

>  <current_task>  (27) 
no_task

>  <rotatable_bond_torsions>  (27) 
1,0,2,7;0,2,7,9;2,7,9,10;7,9,10,11

$$$$

     RDKit          3D

 16 17  0  0  0  0  0  0  0  0999 V2000
  -27.9010   -7.3240  -31.2800 C   0  0  0  0  0  0  0  0  0  0  0  0
  -27.6880   -6.7800  -32.5130 N   0  0  0  0  0  0  0  0  0  0  0  0
  -27.5630   -8.7620  -31.0130 N   0  0  0  0  0  0  0  0  0  0  0  0
  -28.0410   -5.4830  -32.4770 C   0  0  0  0  0  0  0  0  0  0  0  0
  -28.4740   -5.2360  -31.2090 N   0  0  0  0  0  0  0  0  0  0  0  0
  -28.3890   -6.3430  -30.4940 N   0  0  0  0  0  0  0  0  0  0  0  0
  -28.4770   -6.6470  -29.0430 C   0  0  0  0  0  0  0  0  0  0  0  0
  -28.4770   -9.6660  -31.2880 C   0  0  0  0  0  0  0  0  0  0  0  0
  -29.5630   -9.6190  -31.8700 O   0  0  0  0  0  0  0  0  0  0  0  0
  -28.1650  -11.1250  -30.8300 C   0  0  0  0  0  0  0  0  0  0  0  0
  -28.9610  -11.5700  -29.4950 C   0  0  0  0  0  0  0  0  0  0  0  0
  -29.6640  -10.5460  -28.8770 C   0  0  0  0  0  0  0  0  0  0  0  0
  -30.4370  -10.8620  -27.7800 C   0  0  0  0  0  0  0  0  0  0  0  0
  -29.0110  -12.8780  -29.0520 C   0  0  0  0  0  0  0  0  0  0  0  0
  -30.4840  -12.1470  -27.3480 C   0  0  0  0  0  0  0  0  0  0  0  0
  -29.7860  -13.1680  -27.9620 C   0  0  0  0  0  0  0  0  0  0  0  0
  1  2  2  0
  1  3  1  0
  1  6  1  0
  2  4  1  0
  3  8  1  0
  4  5  2  0
  5  6  1  0
  6  7  1  0
  8  9  2  0
  8 10  1  0
 10 11  1  0
 11 14  1  0
 11 12  2  0
 12 13  1  0
 13 15  2  0
 14 16  2  0
 15 16  1  0
M  END
>  <name>  (28) 
Car Nac Nd0 Car Nac Nac Cs3 Cs2 .=O Cs3 Car Car Car Car Car Car

>  <indices>  (28) 
[0, 1, 2]

>  <tasks>  (28) 
probe_placing close_aromatic_ring close_aromatic_ring close_aromatic_ring ring_built build_to_Nac build_to_Nd0 build_DB_to_Cs2 build_SB_to_Cs2 no_task close_aromatic_ring close_aromatic_ring close_aromatic_ring close_aromatic_ring

>  <prot_clashes>  (28) 
5

>  <NBS phar>  (28) 
0.22000000000000003

>  <NBS_non-phar>  (28) 
0.524645984172821

>  <NBS>  (28) 
0.744645984172821

>  <source_stage>  (28) 
scored

>  <source_iter>  (28) 
13

>  <source_parent_mol>  (28) 
1

>  <source_scenario>  (28) 
1 2 3 1 0 0 0 1 7 2 3 2 1

>  <source_rank_in_scored_call>  (28) 
0

>  <source_current_task>  (28) 
close_aromatic_ring

>  <scenario>  (28) 
1 2 3 1 0 0 0 1 7 2 3 2

>  <protected_ring_attachments>  (28) 
3,1,0,2|1,0,2;4,5,0,2|5,0,2

>  <current_task>  (28) 
no_task

>  <rotatable_bond_torsions>  (28) 
1,0,2,7;0,2,7,9;2,7,9,10;7,9,10,11;9,10,11,12

$$$$

     RDKit          3D

 17 18  0  0  0  0  0  0  0  0999 V2000
  -27.9010   -7.3230  -31.2800 C   0  0  0  0  0  0  0  0  0  0  0  0
  -27.6880   -6.7800  -32.5130 N   0  0  0  0  0  0  0  0  0  0  0  0
  -27.5630   -8.7600  -31.0120 N   0  0  0  0  0  0  0  0  0  0  0  0
  -28.0410   -5.4830  -32.4790 C   0  0  0  0  0  0  0  0  0  0  0  0
  -28.4730   -5.2340  -31.2110 N   0  0  0  0  0  0  0  0  0  0  0  0
  -28.3880   -6.3420  -30.4940 N   0  0  0  0  0  0  0  0  0  0  0  0
  -28.4760   -6.6450  -29.0430 C   0  0  0  0  0  0  0  0  0  0  0  0
  -28.4770   -9.6640  -31.2860 C   0  0  0  0  0  0  0  0  0  0  0  0
  -29.5630   -9.6180  -31.8670 O   0  0  0  0  0  0  0  0  0  0  0  0
  -28.1650  -11.1230  -30.8270 C   0  0  0  0  0  0  0  0  0  0  0  0
  -28.9180  -11.6170  -29.5300 C   0  0  0  0  0  0  0  0  0  0  0  0
  -29.6760  -10.5690  -28.8580 C   0  0  0  0  0  0  0  0  0  0  0  0
  -30.4230  -10.8220  -27.8020 C   0  0  0  0  0  0  0  0  0  0  0  0
  -29.0090  -12.8350  -29.0400 C   0  0  0  0  0  0  0  0  0  0  0  0
  -30.5870  -12.1530  -27.1830 C   0  0  0  0  0  0  0  0  0  0  0  0
  -29.8120  -13.1100  -27.9050 N   0  0  0  0  0  0  0  0  0  0  0  0
  -31.2900  -12.4010  -26.1880 O   0  0  0  0  0  0  0  0  0  0  0  0
  1  2  2  0
  1  3  1  0
  1  6  1  0
  2  4  1  0
  3  8  1  0
  4  5  2  0
  5  6  1  0
  6  7  1  0
  8  9  2  0
  8 10  1  0
 10 11  1  0
 11 14  2  0
 11 12  1  0
 12 13  2  0
 13 15  1  0
 14 16  1  0
 15 16  1  0
 15 17  2  0
M  END
>  <name>  (29) 
Car Nac Nd0 Car Nac Nac Cs3 Cs2 .=O Cs3 Car Car Car Car Car Nd0 .=O

>  <indices>  (29) 
[0, 1, 2]

>  <tasks>  (29) 
probe_placing close_aromatic_ring close_aromatic_ring close_aromatic_ring ring_built build_to_Nac build_to_Nd0 build_DB_to_Cs2 build_SB_to_Cs2 no_task close_aromatic_ring close_aromatic_ring close_aromatic_ring close_aromatic_ring close_aromatic_ring

>  <prot_clashes>  (29) 
5

>  <NBS phar>  (29) 
0.22000000000000003

>  <NBS_non-phar>  (29) 
0.5017342286951402

>  <NBS>  (29) 
0.7217342286951403

>  <source_stage>  (29) 
scored

>  <source_iter>  (29) 
14

>  <source_parent_mol>  (29) 
0

>  <source_scenario>  (29) 
1 2 3 1 0 0 0 1 7 2 3 2 1 0

>  <source_rank_in_scored_call>  (29) 
4

>  <source_current_task>  (29) 
fix_Car

>  <scenario>  (29) 
1 2 3 1 0 0 0 1 7 2 3 2 1

>  <protected_ring_attachments>  (29) 
3,1,0,2|1,0,2;4,5,0,2|5,0,2

>  <current_task>  (29) 
no_task

>  <rotatable_bond_torsions>  (29) 
1,0,2,7;0,2,7,9;2,7,9,10;7,9,10,11

$$$$

     RDKit          3D

 16 17  0  0  0  0  0  0  0  0999 V2000
  -27.9010   -7.3240  -31.2790 C   0  0  0  0  0  0  0  0  0  0  0  0
  -27.6880   -6.7800  -32.5130 N   0  0  0  0  0  0  0  0  0  0  0  0
  -27.5620   -8.7610  -31.0130 N   0  0  0  0  0  0  0  0  0  0  0  0
  -28.0400   -5.4830  -32.4770 C   0  0  0  0  0  0  0  0  0  0  0  0
  -28.4730   -5.2370  -31.2090 N   0  0  0  0  0  0  0  0  0  0  0  0
  -28.3890   -6.3430  -30.4930 N   0  0  0  0  0  0  0  0  0  0  0  0
  -28.4750   -6.6460  -29.0430 C   0  0  0  0  0  0  0  0  0  0  0  0
  -28.4770   -9.6660  -31.2870 C   0  0  0  0  0  0  0  0  0  0  0  0
  -29.5630   -9.6190  -31.8690 O   0  0  0  0  0  0  0  0  0  0  0  0
  -28.1650  -11.1240  -30.8290 C   0  0  0  0  0  0  0  0  0  0  0  0
  -28.9820  -11.5600  -29.5550 C   0  0  0  0  0  0  0  0  0  0  0  0
  -29.6590  -10.5680  -28.8750 C   0  0  0  0  0  0  0  0  0  0  0  0
  -30.4320  -10.8400  -27.7460 C   0  0  0  0  0  0  0  0  0  0  0  0
  -30.4780  -12.1570  -27.3520 C   0  0  0  0  0  0  0  0  0  0  0  0
  -29.8370  -13.1780  -27.9730 C   0  0  0  0  0  0  0  0  0  0  0  0
  -29.0750  -12.8600  -29.0990 C   0  0  0  0  0  0  0  0  0  0  0  0
  1  2  2  0
  1  3  1  0
  1  6  1  0
  2  4  1  0
  3  8  1  0
  4  5  2  0
  5  6  1  0
  6  7  1  0
  8  9  2  0
  8 10  1  0
 10 11  1  0
 11 16  1  0
 11 12  2  0
 12 13  1  0
 13 14  2  0
 14 15  1  0
 15 16  2  0
M  END
>  <name>  (30) 
Car Nac Nd0 Car Nac Nac Cs3 Cs2 .=O Cs3 Car Car Car Car Car Car

>  <indices>  (30) 
[0, 1, 2]

>  <tasks>  (30) 
probe_placing close_aromatic_ring close_aromatic_ring close_aromatic_ring ring_built build_to_Nac build_to_Nd0 build_DB_to_Cs2 build_SB_to_Cs2 no_task close_aromatic_ring close_aromatic_ring close_aromatic_ring close_aromatic_ring

>  <prot_clashes>  (30) 
5

>  <NBS phar>  (30) 
0.22000000000000003

>  <NBS_non-phar>  (30) 
0.5235194563865662

>  <NBS>  (30) 
0.7435194563865661

>  <source_stage>  (30) 
scored

>  <source_iter>  (30) 
13

>  <source_parent_mol>  (30) 
1

>  <source_scenario>  (30) 
1 2 3 1 0 0 0 1 7 2 3 3 1

>  <source_rank_in_scored_call>  (30) 
0

>  <source_current_task>  (30) 
close_aromatic_ring

>  <scenario>  (30) 
1 2 3 1 0 0 0 1 7 2 3 3

>  <protected_ring_attachments>  (30) 
3,1,0,2|1,0,2;4,5,0,2|5,0,2

>  <current_task>  (30) 
no_task

>  <rotatable_bond_torsions>  (30) 
1,0,2,7;0,2,7,9;2,7,9,10;7,9,10,11;9,10,11,12;11,12,13,14

$$$$

     RDKit          3D

 16 17  0  0  0  0  0  0  0  0999 V2000
  -27.8920   -7.3210  -31.2790 C   0  0  0  0  0  0  0  0  0  0  0  0
  -27.6850   -6.7790  -32.5130 N   0  0  0  0  0  0  0  0  0  0  0  0
  -27.5540   -8.7600  -31.0140 N   0  0  0  0  0  0  0  0  0  0  0  0
  -28.0340   -5.4810  -32.4720 C   0  0  0  0  0  0  0  0  0  0  0  0
  -28.4580   -5.2320  -31.2010 N   0  0  0  0  0  0  0  0  0  0  0  0
  -28.3700   -6.3400  -30.4880 N   0  0  0  0  0  0  0  0  0  0  0  0
  -28.4490   -6.6440  -29.0350 C   0  0  0  0  0  0  0  0  0  0  0  0
  -28.4740   -9.6610  -31.2840 C   0  0  0  0  0  0  0  0  0  0  0  0
  -29.5640   -9.6120  -31.8570 O   0  0  0  0  0  0  0  0  0  0  0  0
  -28.1610  -11.1220  -30.8270 C   0  0  0  0  0  0  0  0  0  0  0  0
  -29.0030  -11.5450  -29.5430 C   0  0  0  0  0  0  0  0  0  0  0  0
  -28.8830  -12.7320  -28.8560 C   0  0  0  0  0  0  0  0  0  0  0  0
  -29.6290  -13.0270  -27.7320 C   0  0  0  0  0  0  0  0  0  0  0  0
  -30.5280  -12.0780  -27.2930 C   0  0  0  0  0  0  0  0  0  0  0  0
  -30.6950  -10.8700  -27.9370 C   0  0  0  0  0  0  0  0  0  0  0  0
  -29.9150  -10.6250  -29.0690 C   0  0  0  0  0  0  0  0  0  0  0  0
  1  2  2  0
  1  3  1  0
  1  6  1  0
  2  4  1  0
  3  8  1  0
  4  5  2  0
  5  6  1  0
  6  7  1  0
  8  9  2  0
  8 10  1  0
 10 11  1  0
 11 16  1  0
 11 12  2  0
 12 13  1  0
 13 14  2  0
 14 15  1  0
 15 16  2  0
M  END
>  <name>  (31) 
Car Nac Nd0 Car Nac Nac Cs3 Cs2 .=O Cs3 Car Car Car Car Car Car

>  <indices>  (31) 
[0, 1, 2]

>  <tasks>  (31) 
probe_placing close_aromatic_ring close_aromatic_ring close_aromatic_ring ring_built build_to_Nac build_to_Nd0 build_DB_to_Cs2 build_SB_to_Cs2 no_task close_aromatic_ring close_aromatic_ring close_aromatic_ring close_aromatic_ring

>  <prot_clashes>  (31) 
6

>  <NBS phar>  (31) 
0.22000000000000003

>  <NBS_non-phar>  (31) 
0.5103271007537842

>  <NBS>  (31) 
0.7303271007537842

>  <source_stage>  (31) 
scored

>  <source_iter>  (31) 
13

>  <source_parent_mol>  (31) 
0

>  <source_scenario>  (31) 
1 2 3 1 0 0 0 1 7 3 6 2 0

>  <source_rank_in_scored_call>  (31) 
0

>  <source_current_task>  (31) 
close_aromatic_ring

>  <scenario>  (31) 
1 2 3 1 0 0 0 1 7 3 6 2

>  <protected_ring_attachments>  (31) 
3,1,0,2|1,0,2;4,5,0,2|5,0,2

>  <current_task>  (31) 
no_task

>  <rotatable_bond_torsions>  (31) 
1,0,2,7;0,2,7,9;2,7,9,10;7,9,10,11;9,10,11,12;11,12,13,14

$$$$

     RDKit          3D

 15 16  0  0  0  0  0  0  0  0999 V2000
  -27.8510   -7.4190  -31.2420 C   0  0  0  0  0  0  0  0  0  0  0  0
  -27.6900   -6.7680  -32.4300 N   0  0  0  0  0  0  0  0  0  0  0  0
  -27.4900   -8.8700  -31.1140 N   0  0  0  0  0  0  0  0  0  0  0  0
  -28.0530   -5.4820  -32.2670 C   0  0  0  0  0  0  0  0  0  0  0  0
  -28.4390   -5.3510  -30.9680 N   0  0  0  0  0  0  0  0  0  0  0  0
  -28.3180   -6.5170  -30.3570 N   0  0  0  0  0  0  0  0  0  0  0  0
  -28.3480   -6.9450  -28.9350 C   0  0  0  0  0  0  0  0  0  0  0  0
  -28.4070   -9.7580  -31.4340 C   0  0  0  0  0  0  0  0  0  0  0  0
  -29.5140   -9.6750  -31.9690 O   0  0  0  0  0  0  0  0  0  0  0  0
  -28.0630  -11.2480  -31.1170 C   0  0  0  0  0  0  0  0  0  0  0  0
  -28.8550  -11.8480  -29.8330 C   0  0  0  0  0  0  0  0  0  0  0  0
  -29.7440  -12.9020  -29.8890 C   0  0  0  0  0  0  0  0  0  0  0  0
  -28.7460  -11.4500  -28.5150 C   0  0  0  0  0  0  0  0  0  0  0  0
  -30.1510  -13.1080  -28.5690 C   0  0  0  0  0  0  0  0  0  0  0  0
  -29.5360  -12.2310  -27.8130 O   0  0  0  0  0  0  0  0  0  0  0  0
  1  2  2  0
  1  3  1  0
  1  6  1  0
  2  4  1  0
  3  8  1  0
  4  5  2  0
  5  6  1  0
  6  7  1  0
  8  9  2  0
  8 10  1  0
 10 11  1  0
 11 12  1  0
 11 13  2  0
 12 14  2  0
 13 15  1  0
 14 15  1  0
M  END
>  <name>  (32) 
Car Nac Nd0 Car Nac Nac Cs3 Cs2 .=O Cs3 Car Car Car Car O_a

>  <indices>  (32) 
[0, 1, 2]

>  <tasks>  (32) 
probe_placing close_aromatic_ring close_aromatic_ring close_aromatic_ring ring_built build_to_Nac build_to_Nd0 build_DB_to_Cs2 build_SB_to_Cs2 no_task close_aromatic_ring close_aromatic_ring close_aromatic_ring

>  <prot_clashes>  (32) 
3

>  <NBS phar>  (32) 
0.32

>  <NBS_non-phar>  (32) 
0.5576557159423828

>  <NBS>  (32) 
0.8776557159423828

>  <source_stage>  (32) 
scored

>  <source_iter>  (32) 
12

>  <source_parent_mol>  (32) 
2

>  <source_scenario>  (32) 
1 2 3 1 0 0 0 1 7 4 4 2

>  <source_rank_in_scored_call>  (32) 
0

>  <source_current_task>  (32) 
close_aromatic_ring

>  <scenario>  (32) 
1 2 3 1 0 0 0 1 7 4 4

>  <protected_ring_attachments>  (32) 
3,1,0,2|1,0,2;4,5,0,2|5,0,2

>  <current_task>  (32) 
no_task

>  <rotatable_bond_torsions>  (32) 
1,0,2,7;0,2,7,9;2,7,9,10;7,9,10,11;9,10,11,13

$$$$

     RDKit          3D

 16 17  0  0  0  0  0  0  0  0999 V2000
  -27.8370   -7.4000  -31.2520 C   0  0  0  0  0  0  0  0  0  0  0  0
  -27.7120   -6.7830  -32.4600 N   0  0  0  0  0  0  0  0  0  0  0  0
  -27.4790   -8.8480  -31.0940 N   0  0  0  0  0  0  0  0  0  0  0  0
  -28.0620   -5.4920  -32.3220 C   0  0  0  0  0  0  0  0  0  0  0  0
  -28.4040   -5.3220  -31.0160 N   0  0  0  0  0  0  0  0  0  0  0  0
  -28.2680   -6.4700  -30.3750 N   0  0  0  0  0  0  0  0  0  0  0  0
  -28.2530   -6.8580  -28.9410 C   0  0  0  0  0  0  0  0  0  0  0  0
  -28.4100   -9.7410  -31.3570 C   0  0  0  0  0  0  0  0  0  0  0  0
  -29.5340   -9.6650  -31.8550 O   0  0  0  0  0  0  0  0  0  0  0  0
  -28.0630  -11.2220  -31.0090 C   0  0  0  0  0  0  0  0  0  0  0  0
  -28.8850  -11.7340  -29.6720 C   0  0  0  0  0  0  0  0  0  0  0  0
  -29.7840  -12.7540  -29.8960 C   0  0  0  0  0  0  0  0  0  0  0  0
  -30.3850  -13.3520  -28.8070 C   0  0  0  0  0  0  0  0  0  0  0  0
  -28.6210  -11.3510  -28.3670 C   0  0  0  0  0  0  0  0  0  0  0  0
  -29.2300  -11.9570  -27.2850 C   0  0  0  0  0  0  0  0  0  0  0  0
  -30.1310  -12.9790  -27.5030 C   0  0  0  0  0  0  0  0  0  0  0  0
  1  2  2  0
  1  3  1  0
  1  6  1  0
  2  4  1  0
  3  8  1  0
  4  5  2  0
  5  6  1  0
  6  7  1  0
  8  9  2  0
  8 10  1  0
 10 11  1  0
 11 12  2  0
 11 14  1  0
 12 13  1  0
 13 16  2  0
 14 15  2  0
 15 16  1  0
M  END
>  <name>  (33) 
Car Nac Nd0 Car Nac Nac Cs3 Cs2 .=O Cs3 Car Car Car Car Car Car

>  <indices>  (33) 
[0, 1, 2]

>  <tasks>  (33) 
probe_placing close_aromatic_ring close_aromatic_ring close_aromatic_ring ring_built build_to_Nac build_to_Nd0 build_DB_to_Cs2 build_SB_to_Cs2 no_task close_aromatic_ring close_aromatic_ring close_aromatic_ring close_aromatic_ring

>  <prot_clashes>  (33) 
5

>  <NBS phar>  (33) 
0.34

>  <NBS_non-phar>  (33) 
0.5574794411659241

>  <NBS>  (33) 
0.8974794411659242

>  <source_stage>  (33) 
scored

>  <source_iter>  (33) 
13

>  <source_parent_mol>  (33) 
2

>  <source_scenario>  (33) 
1 2 3 1 0 0 0 1 7 4 9 0 2

>  <source_rank_in_scored_call>  (33) 
0

>  <source_current_task>  (33) 
close_aromatic_ring

>  <scenario>  (33) 
1 2 3 1 0 0 0 1 7 4 9 0

>  <protected_ring_attachments>  (33) 
3,1,0,2|1,0,2;4,5,0,2|5,0,2

>  <current_task>  (33) 
no_task

>  <rotatable_bond_torsions>  (33) 
1,0,2,7;0,2,7,9;2,7,9,10;7,9,10,11;9,10,11,12

$$$$

     RDKit          3D

 16 17  0  0  0  0  0  0  0  0999 V2000
  -27.8370   -7.4020  -31.2480 C   0  0  0  0  0  0  0  0  0  0  0  0
  -27.7140   -6.7950  -32.4620 N   0  0  0  0  0  0  0  0  0  0  0  0
  -27.4760   -8.8480  -31.0800 N   0  0  0  0  0  0  0  0  0  0  0  0
  -28.0650   -5.5020  -32.3340 C   0  0  0  0  0  0  0  0  0  0  0  0
  -28.4050   -5.3230  -31.0280 N   0  0  0  0  0  0  0  0  0  0  0  0
  -28.2660   -6.4650  -30.3780 N   0  0  0  0  0  0  0  0  0  0  0  0
  -28.2480   -6.8410  -28.9410 C   0  0  0  0  0  0  0  0  0  0  0  0
  -28.4080   -9.7430  -31.3330 C   0  0  0  0  0  0  0  0  0  0  0  0
  -29.5330   -9.6730  -31.8300 O   0  0  0  0  0  0  0  0  0  0  0  0
  -28.0590  -11.2210  -30.9740 C   0  0  0  0  0  0  0  0  0  0  0  0
  -28.8000  -11.7590  -29.6490 C   0  0  0  0  0  0  0  0  0  0  0  0
  -29.7690  -12.7280  -29.8900 C   0  0  0  0  0  0  0  0  0  0  0  0
  -30.5110  -13.2360  -28.8410 C   0  0  0  0  0  0  0  0  0  0  0  0
  -28.6110  -11.3240  -28.3330 C   0  0  0  0  0  0  0  0  0  0  0  0
  -29.3510  -11.8340  -27.3010 C   0  0  0  0  0  0  0  0  0  0  0  0
  -30.3070  -12.7930  -27.5480 C   0  0  0  0  0  0  0  0  0  0  0  0
  1  2  2  0
  1  3  1  0
  1  6  1  0
  2  4  1  0
  3  8  1  0
  4  5  2  0
  5  6  1  0
  6  7  1  0
  8  9  2  0
  8 10  1  0
 10 11  1  0
 11 12  2  0
 11 14  1  0
 12 13  1  0
 13 16  2  0
 14 15  2  0
 15 16  1  0
M  END
>  <name>  (34) 
Car Nac Nd0 Car Nac Nac Cs3 Cs2 .=O Cs3 Car Car Car Car Car Car

>  <indices>  (34) 
[0, 1, 2]

>  <tasks>  (34) 
probe_placing close_aromatic_ring close_aromatic_ring close_aromatic_ring ring_built build_to_Nac build_to_Nd0 build_DB_to_Cs2 build_SB_to_Cs2 no_task close_aromatic_ring close_aromatic_ring close_aromatic_ring close_aromatic_ring

>  <prot_clashes>  (34) 
4

>  <NBS phar>  (34) 
0.34

>  <NBS_non-phar>  (34) 
0.5490508675575256

>  <NBS>  (34) 
0.8890508675575257

>  <source_stage>  (34) 
scored

>  <source_iter>  (34) 
13

>  <source_parent_mol>  (34) 
2

>  <source_scenario>  (34) 
1 2 3 1 0 0 0 1 7 4 9 0 2

>  <source_rank_in_scored_call>  (34) 
2

>  <source_current_task>  (34) 
close_aromatic_ring

>  <scenario>  (34) 
1 2 3 1 0 0 0 1 7 4 9 0

>  <protected_ring_attachments>  (34) 
3,1,0,2|1,0,2;4,5,0,2|5,0,2

>  <current_task>  (34) 
no_task

>  <rotatable_bond_torsions>  (34) 
1,0,2,7;0,2,7,9;2,7,9,10;7,9,10,11;9,10,11,12

$$$$

     RDKit          3D

 16 17  0  0  0  0  0  0  0  0999 V2000
  -27.8160   -7.3940  -31.3010 C   0  0  0  0  0  0  0  0  0  0  0  0
  -27.7260   -6.7780  -32.5130 N   0  0  0  0  0  0  0  0  0  0  0  0
  -27.4640   -8.8440  -31.1550 N   0  0  0  0  0  0  0  0  0  0  0  0
  -28.0620   -5.4840  -32.3640 C   0  0  0  0  0  0  0  0  0  0  0  0
  -28.3580   -5.3120  -31.0470 N   0  0  0  0  0  0  0  0  0  0  0  0
  -28.2100   -6.4590  -30.4100 N   0  0  0  0  0  0  0  0  0  0  0  0
  -28.1490   -6.8480  -28.9780 C   0  0  0  0  0  0  0  0  0  0  0  0
  -28.4110   -9.7290  -31.3860 C   0  0  0  0  0  0  0  0  0  0  0  0
  -29.5510   -9.6450  -31.8470 O   0  0  0  0  0  0  0  0  0  0  0  0
  -28.0640  -11.2140  -31.0500 C   0  0  0  0  0  0  0  0  0  0  0  0
  -28.7800  -11.7490  -29.6870 C   0  0  0  0  0  0  0  0  0  0  0  0
  -28.5320  -11.3330  -28.3950 C   0  0  0  0  0  0  0  0  0  0  0  0
  -29.2610  -11.8890  -27.3620 C   0  0  0  0  0  0  0  0  0  0  0  0
  -29.7520  -12.7140  -29.9240 C   0  0  0  0  0  0  0  0  0  0  0  0
  -30.2390  -12.8590  -27.5880 C   0  0  0  0  0  0  0  0  0  0  0  0
  -30.4710  -13.2620  -28.8930 C   0  0  0  0  0  0  0  0  0  0  0  0
  1  2  2  0
  1  3  1  0
  1  6  1  0
  2  4  1  0
  3  8  1  0
  4  5  2  0
  5  6  1  0
  6  7  1  0
  8  9  2  0
  8 10  1  0
 10 11  1  0
 11 14  1  0
 11 12  2  0
 12 13  1  0
 13 15  2  0
 14 16  2  0
 15 16  1  0
M  END
>  <name>  (35) 
Car Nac Nd0 Car Nac Nac Cs3 Cs2 .=O Cs3 Car Car Car Car Car Car

>  <indices>  (35) 
[0, 1, 2]

>  <tasks>  (35) 
probe_placing close_aromatic_ring close_aromatic_ring close_aromatic_ring ring_built build_to_Nac build_to_Nd0 build_DB_to_Cs2 build_SB_to_Cs2 no_task close_aromatic_ring close_aromatic_ring close_aromatic_ring close_aromatic_ring

>  <prot_clashes>  (35) 
4

>  <NBS phar>  (35) 
0.32

>  <NBS_non-phar>  (35) 
0.5166550874710083

>  <NBS>  (35) 
0.8366550874710084

>  <source_stage>  (35) 
scored

>  <source_iter>  (35) 
13

>  <source_parent_mol>  (35) 
4

>  <source_scenario>  (35) 
1 2 3 1 0 0 0 1 7 4 9 0 4

>  <source_rank_in_scored_call>  (35) 
1

>  <source_current_task>  (35) 
close_aromatic_ring

>  <scenario>  (35) 
1 2 3 1 0 0 0 1 7 4 9 0

>  <protected_ring_attachments>  (35) 
3,1,0,2|1,0,2;4,5,0,2|5,0,2

>  <current_task>  (35) 
no_task

>  <rotatable_bond_torsions>  (35) 
1,0,2,7;0,2,7,9;2,7,9,10;7,9,10,11;9,10,11,12

$$$$

     RDKit          3D

 16 17  0  0  0  0  0  0  0  0999 V2000
  -27.8520   -7.4040  -31.2580 C   0  0  0  0  0  0  0  0  0  0  0  0
  -27.7030   -6.7800  -32.4610 N   0  0  0  0  0  0  0  0  0  0  0  0
  -27.4890   -8.8520  -31.1010 N   0  0  0  0  0  0  0  0  0  0  0  0
  -28.0630   -5.4910  -32.3250 C   0  0  0  0  0  0  0  0  0  0  0  0
  -28.4330   -5.3300  -31.0240 N   0  0  0  0  0  0  0  0  0  0  0  0
  -28.3040   -6.4810  -30.3870 N   0  0  0  0  0  0  0  0  0  0  0  0
  -28.3180   -6.8760  -28.9550 C   0  0  0  0  0  0  0  0  0  0  0  0
  -28.4090   -9.7470  -31.3890 C   0  0  0  0  0  0  0  0  0  0  0  0
  -29.5240   -9.6750  -31.9100 O   0  0  0  0  0  0  0  0  0  0  0  0
  -28.0630  -11.2280  -31.0400 C   0  0  0  0  0  0  0  0  0  0  0  0
  -28.8500  -11.7890  -29.7290 C   0  0  0  0  0  0  0  0  0  0  0  0
  -28.6770  -11.3740  -28.4040 C   0  0  0  0  0  0  0  0  0  0  0  0
  -29.4680  -11.9620  -27.4540 C   0  0  0  0  0  0  0  0  0  0  0  0
  -30.4030  -12.9210  -27.7510 C   0  0  0  0  0  0  0  0  0  0  0  0
  -30.5840  -13.3400  -29.0530 C   0  0  0  0  0  0  0  0  0  0  0  0
  -29.7920  -12.7550  -30.0200 C   0  0  0  0  0  0  0  0  0  0  0  0
  1  2  2  0
  1  3  1  0
  1  6  1  0
  2  4  1  0
  3  8  1  0
  4  5  2  0
  5  6  1  0
  6  7  1  0
  8  9  2  0
  8 10  1  0
 10 11  1  0
 11 16  1  0
 11 12  2  0
 12 13  1  0
 13 14  2  0
 14 15  1  0
 15 16  2  0
M  END
>  <name>  (36) 
Car Nac Nd0 Car Nac Nac Cs3 Cs2 .=O Cs3 Car Car Car Car Car Car

>  <indices>  (36) 
[0, 1, 2]

>  <tasks>  (36) 
probe_placing close_aromatic_ring close_aromatic_ring close_aromatic_ring ring_built build_to_Nac build_to_Nd0 build_DB_to_Cs2 build_SB_to_Cs2 no_task close_aromatic_ring close_aromatic_ring close_aromatic_ring close_aromatic_ring

>  <prot_clashes>  (36) 
4

>  <NBS phar>  (36) 
0.34

>  <NBS_non-phar>  (36) 
0.5540175437927246

>  <NBS>  (36) 
0.8940175437927247

>  <source_stage>  (36) 
scored

>  <source_iter>  (36) 
13

>  <source_parent_mol>  (36) 
3

>  <source_scenario>  (36) 
1 2 3 1 0 0 0 1 7 4 9 1 3

>  <source_rank_in_scored_call>  (36) 
0

>  <source_current_task>  (36) 
close_aromatic_ring

>  <scenario>  (36) 
1 2 3 1 0 0 0 1 7 4 9 1

>  <protected_ring_attachments>  (36) 
3,1,0,2|1,0,2;4,5,0,2|5,0,2

>  <current_task>  (36) 
no_task

>  <rotatable_bond_torsions>  (36) 
1,0,2,7;0,2,7,9;2,7,9,10;7,9,10,11;9,10,11,12;11,12,13,14

$$$$

     RDKit          3D

 15 16  0  0  0  0  0  0  0  0999 V2000
  -27.8510   -7.4230  -31.2420 C   0  0  0  0  0  0  0  0  0  0  0  0
  -27.6890   -6.7680  -32.4250 N   0  0  0  0  0  0  0  0  0  0  0  0
  -27.4900   -8.8760  -31.1190 N   0  0  0  0  0  0  0  0  0  0  0  0
  -28.0510   -5.4830  -32.2570 C   0  0  0  0  0  0  0  0  0  0  0  0
  -28.4380   -5.3580  -30.9570 N   0  0  0  0  0  0  0  0  0  0  0  0
  -28.3170   -6.5260  -30.3520 N   0  0  0  0  0  0  0  0  0  0  0  0
  -28.3470   -6.9610  -28.9310 C   0  0  0  0  0  0  0  0  0  0  0  0
  -28.4060   -9.7630  -31.4440 C   0  0  0  0  0  0  0  0  0  0  0  0
  -29.5130   -9.6760  -31.9780 O   0  0  0  0  0  0  0  0  0  0  0  0
  -28.0630  -11.2530  -31.1320 C   0  0  0  0  0  0  0  0  0  0  0  0
  -28.8150  -11.7900  -29.9020 C   0  0  0  0  0  0  0  0  0  0  0  0
  -28.7080  -11.2120  -28.6530 C   0  0  0  0  0  0  0  0  0  0  0  0
  -29.4900  -11.9410  -27.7790 C   0  0  0  0  0  0  0  0  0  0  0  0
  -30.0470  -12.9470  -28.5450 C   0  0  0  0  0  0  0  0  0  0  0  0
  -29.6240  -12.8290  -29.8030 O   0  0  0  0  0  0  0  0  0  0  0  0
  1  2  2  0
  1  3  1  0
  1  6  1  0
  2  4  1  0
  3  8  1  0
  4  5  2  0
  5  6  1  0
  6  7  1  0
  8  9  2  0
  8 10  1  0
 10 11  1  0
 11 15  1  0
 11 12  2  0
 12 13  1  0
 13 14  2  0
 14 15  1  0
M  END
>  <name>  (37) 
Car Nac Nd0 Car Nac Nac Cs3 Cs2 .=O Cs3 Car Car Car Car O_a

>  <indices>  (37) 
[0, 1, 2]

>  <tasks>  (37) 
probe_placing close_aromatic_ring close_aromatic_ring close_aromatic_ring ring_built build_to_Nac build_to_Nd0 build_DB_to_Cs2 build_SB_to_Cs2 no_task close_aromatic_ring close_aromatic_ring close_aromatic_ring

>  <prot_clashes>  (37) 
3

>  <NBS phar>  (37) 
0.3

>  <NBS_non-phar>  (37) 
0.6048117955525716

>  <NBS>  (37) 
0.9048117955525716

>  <source_stage>  (37) 
scored

>  <source_iter>  (37) 
12

>  <source_parent_mol>  (37) 
1

>  <source_scenario>  (37) 
1 2 3 1 0 0 0 1 7 5 3 1

>  <source_rank_in_scored_call>  (37) 
0

>  <source_current_task>  (37) 
close_aromatic_ring

>  <scenario>  (37) 
1 2 3 1 0 0 0 1 7 5 3

>  <protected_ring_attachments>  (37) 
3,1,0,2|1,0,2;4,5,0,2|5,0,2

>  <current_task>  (37) 
no_task

>  <rotatable_bond_torsions>  (37) 
1,0,2,7;0,2,7,9;2,7,9,10;7,9,10,11;10,11,12,13

$$$$

     RDKit          3D

 16 17  0  0  0  0  0  0  0  0999 V2000
  -27.8500   -7.4050  -31.2750 C   0  0  0  0  0  0  0  0  0  0  0  0
  -27.6900   -6.7710  -32.4700 N   0  0  0  0  0  0  0  0  0  0  0  0
  -27.4890   -8.8540  -31.1280 N   0  0  0  0  0  0  0  0  0  0  0  0
  -28.0520   -5.4820  -32.3240 C   0  0  0  0  0  0  0  0  0  0  0  0
  -28.4370   -5.3340  -31.0260 N   0  0  0  0  0  0  0  0  0  0  0  0
  -28.3150   -6.4910  -30.3990 N   0  0  0  0  0  0  0  0  0  0  0  0
  -28.3420   -6.9020  -28.9710 C   0  0  0  0  0  0  0  0  0  0  0  0
  -28.4060   -9.7460  -31.4350 C   0  0  0  0  0  0  0  0  0  0  0  0
  -29.5150   -9.6690  -31.9680 O   0  0  0  0  0  0  0  0  0  0  0  0
  -28.0630  -11.2320  -31.0990 C   0  0  0  0  0  0  0  0  0  0  0  0
  -28.8400  -11.8020  -29.8570 C   0  0  0  0  0  0  0  0  0  0  0  0
  -28.6840  -11.1320  -28.6570 C   0  0  0  0  0  0  0  0  0  0  0  0
  -29.3440  -11.6040  -27.5270 C   0  0  0  0  0  0  0  0  0  0  0  0
  -30.1500  -12.7310  -27.5840 C   0  0  0  0  0  0  0  0  0  0  0  0
  -29.6460  -12.9210  -29.8910 C   0  0  0  0  0  0  0  0  0  0  0  0
  -30.3070  -13.4010  -28.7810 C   0  0  0  0  0  0  0  0  0  0  0  0
  1  2  2  0
  1  3  1  0
  1  6  1  0
  2  4  1  0
  3  8  1  0
  4  5  2  0
  5  6  1  0
  6  7  1  0
  8  9  2  0
  8 10  1  0
 10 11  1  0
 11 15  1  0
 11 12  2  0
 12 13  1  0
 13 14  2  0
 14 16  1  0
 15 16  2  0
M  END
>  <name>  (38) 
Car Nac Nd0 Car Nac Nac Cs3 Cs2 .=O Cs3 Car Car Car Car Car Car

>  <indices>  (38) 
[0, 1, 2]

>  <tasks>  (38) 
probe_placing close_aromatic_ring close_aromatic_ring close_aromatic_ring ring_built build_to_Nac build_to_Nd0 build_DB_to_Cs2 build_SB_to_Cs2 no_task close_aromatic_ring close_aromatic_ring close_aromatic_ring close_aromatic_ring

>  <prot_clashes>  (38) 
4

>  <NBS phar>  (38) 
0.32

>  <NBS_non-phar>  (38) 
0.5555759072303772

>  <NBS>  (38) 
0.8755759072303773

>  <source_stage>  (38) 
scored

>  <source_iter>  (38) 
13

>  <source_parent_mol>  (38) 
3

>  <source_scenario>  (38) 
1 2 3 1 0 0 0 1 7 5 4 1 3

>  <source_rank_in_scored_call>  (38) 
2

>  <source_current_task>  (38) 
close_aromatic_ring

>  <scenario>  (38) 
1 2 3 1 0 0 0 1 7 5 4 1

>  <protected_ring_attachments>  (38) 
3,1,0,2|1,0,2;4,5,0,2|5,0,2

>  <current_task>  (38) 
no_task

>  <rotatable_bond_torsions>  (38) 
1,0,2,7;0,2,7,9;2,7,9,10;7,9,10,11;10,11,12,13

$$$$

     RDKit          3D

 16 17  0  0  0  0  0  0  0  0999 V2000
  -27.8510   -7.4050  -31.2500 C   0  0  0  0  0  0  0  0  0  0  0  0
  -27.7000   -6.7710  -32.4460 N   0  0  0  0  0  0  0  0  0  0  0  0
  -27.4880   -8.8560  -31.1070 N   0  0  0  0  0  0  0  0  0  0  0  0
  -28.0610   -5.4830  -32.2960 C   0  0  0  0  0  0  0  0  0  0  0  0
  -28.4350   -5.3360  -30.9940 N   0  0  0  0  0  0  0  0  0  0  0  0
  -28.3070   -6.4930  -30.3690 N   0  0  0  0  0  0  0  0  0  0  0  0
  -28.3230   -6.9050  -28.9410 C   0  0  0  0  0  0  0  0  0  0  0  0
  -28.4080   -9.7480  -31.4060 C   0  0  0  0  0  0  0  0  0  0  0  0
  -29.5200   -9.6710  -31.9290 O   0  0  0  0  0  0  0  0  0  0  0  0
  -28.0630  -11.2330  -31.0740 C   0  0  0  0  0  0  0  0  0  0  0  0
  -28.8490  -11.8090  -29.8010 C   0  0  0  0  0  0  0  0  0  0  0  0
  -29.6400  -12.9480  -29.8890 C   0  0  0  0  0  0  0  0  0  0  0  0
  -30.2490  -13.4000  -28.7370 C   0  0  0  0  0  0  0  0  0  0  0  0
  -28.6680  -11.1370  -28.6110 C   0  0  0  0  0  0  0  0  0  0  0  0
  -29.3040  -11.6430  -27.4980 C   0  0  0  0  0  0  0  0  0  0  0  0
  -30.1000  -12.7690  -27.5240 C   0  0  0  0  0  0  0  0  0  0  0  0
  1  2  2  0
  1  3  1  0
  1  6  1  0
  2  4  1  0
  3  8  1  0
  4  5  2  0
  5  6  1  0
  6  7  1  0
  8  9  2  0
  8 10  1  0
 10 11  1  0
 11 12  2  0
 11 14  1  0
 12 13  1  0
 13 16  2  0
 14 15  2  0
 15 16  1  0
M  END
>  <name>  (39) 
Car Nac Nd0 Car Nac Nac Cs3 Cs2 .=O Cs3 Car Car Car Car Car Car

>  <indices>  (39) 
[0, 1, 2]

>  <tasks>  (39) 
probe_placing close_aromatic_ring close_aromatic_ring close_aromatic_ring ring_built build_to_Nac build_to_Nd0 build_DB_to_Cs2 build_SB_to_Cs2 no_task close_aromatic_ring close_aromatic_ring close_aromatic_ring close_aromatic_ring

>  <prot_clashes>  (39) 
4

>  <NBS phar>  (39) 
0.32

>  <NBS_non-phar>  (39) 
0.5582922101020813

>  <NBS>  (39) 
0.8782922101020814

>  <source_stage>  (39) 
scored

>  <source_iter>  (39) 
13

>  <source_parent_mol>  (39) 
2

>  <source_scenario>  (39) 
1 2 3 1 0 0 0 1 7 5 4 2 2

>  <source_rank_in_scored_call>  (39) 
0

>  <source_current_task>  (39) 
close_aromatic_ring

>  <scenario>  (39) 
1 2 3 1 0 0 0 1 7 5 4 2

>  <protected_ring_attachments>  (39) 
3,1,0,2|1,0,2;4,5,0,2|5,0,2

>  <current_task>  (39) 
no_task

>  <rotatable_bond_torsions>  (39) 
1,0,2,7;0,2,7,9;2,7,9,10;7,9,10,11;9,10,13,14

$$$$

     RDKit          3D

 16 17  0  0  0  0  0  0  0  0999 V2000
  -27.8550   -7.3780  -31.2860 C   0  0  0  0  0  0  0  0  0  0  0  0
  -27.7280   -6.7680  -32.4990 N   0  0  0  0  0  0  0  0  0  0  0  0
  -27.4910   -8.8260  -31.1220 N   0  0  0  0  0  0  0  0  0  0  0  0
  -28.0860   -5.4770  -32.3690 C   0  0  0  0  0  0  0  0  0  0  0  0
  -28.4330   -5.3040  -31.0630 N   0  0  0  0  0  0  0  0  0  0  0  0
  -28.2930   -6.4480  -30.4170 N   0  0  0  0  0  0  0  0  0  0  0  0
  -28.2820   -6.8290  -28.9820 C   0  0  0  0  0  0  0  0  0  0  0  0
  -28.4170   -9.7240  -31.3840 C   0  0  0  0  0  0  0  0  0  0  0  0
  -29.5390   -9.6550  -31.8880 O   0  0  0  0  0  0  0  0  0  0  0  0
  -28.0670  -11.2020  -31.0280 C   0  0  0  0  0  0  0  0  0  0  0  0
  -28.8190  -11.7810  -29.8460 C   0  0  0  0  0  0  0  0  0  0  0  0
  -29.7460  -12.8300  -29.8950 C   0  0  0  0  0  0  0  0  0  0  0  0
  -28.4290  -11.2470  -28.6350 C   0  0  0  0  0  0  0  0  0  0  0  0
  -30.2390  -13.2910  -28.6930 C   0  0  0  0  0  0  0  0  0  0  0  0
  -29.8720  -12.7850  -27.4870 C   0  0  0  0  0  0  0  0  0  0  0  0
  -28.9600  -11.7530  -27.4450 C   0  0  0  0  0  0  0  0  0  0  0  0
  1  2  2  0
  1  3  1  0
  1  6  1  0
  2  4  1  0
  3  8  1  0
  4  5  2  0
  5  6  1  0
  6  7  1  0
  8  9  2  0
  8 10  1  0
 10 11  1  0
 11 12  2  0
 11 13  1  0
 12 14  1  0
 13 16  2  0
 14 15  2  0
 15 16  1  0
M  END
>  <name>  (40) 
Car Nac Nd0 Car Nac Nac Cs3 Cs2 .=O Cs3 Car Car Car Car Car Car

>  <indices>  (40) 
[0, 1, 2]

>  <tasks>  (40) 
probe_placing close_aromatic_ring close_aromatic_ring close_aromatic_ring ring_built build_to_Nac build_to_Nd0 build_DB_to_Cs2 build_SB_to_Cs2 no_task close_aromatic_ring close_aromatic_ring close_aromatic_ring close_aromatic_ring

>  <prot_clashes>  (40) 
4

>  <NBS phar>  (40) 
0.34

>  <NBS_non-phar>  (40) 
0.5619040131568909

>  <NBS>  (40) 
0.901904013156891

>  <source_stage>  (40) 
scored

>  <source_iter>  (40) 
13

>  <source_parent_mol>  (40) 
1

>  <source_scenario>  (40) 
1 2 3 1 0 0 0 1 7 5 5 1 1

>  <source_rank_in_scored_call>  (40) 
0

>  <source_current_task>  (40) 
close_aromatic_ring

>  <scenario>  (40) 
1 2 3 1 0 0 0 1 7 5 5 1

>  <protected_ring_attachments>  (40) 
3,1,0,2|1,0,2;4,5,0,2|5,0,2

>  <current_task>  (40) 
no_task

>  <rotatable_bond_torsions>  (40) 
1,0,2,7;0,2,7,9;2,7,9,10;7,9,10,11;10,11,13,14

$$$$

     RDKit          3D

 16 17  0  0  0  0  0  0  0  0999 V2000
  -27.8520   -7.4080  -31.2560 C   0  0  0  0  0  0  0  0  0  0  0  0
  -27.7010   -6.7740  -32.4530 N   0  0  0  0  0  0  0  0  0  0  0  0
  -27.4880   -8.8570  -31.1120 N   0  0  0  0  0  0  0  0  0  0  0  0
  -28.0630   -5.4860  -32.3050 C   0  0  0  0  0  0  0  0  0  0  0  0
  -28.4370   -5.3390  -31.0030 N   0  0  0  0  0  0  0  0  0  0  0  0
  -28.3100   -6.4950  -30.3780 N   0  0  0  0  0  0  0  0  0  0  0  0
  -28.3280   -6.9050  -28.9500 C   0  0  0  0  0  0  0  0  0  0  0  0
  -28.4070   -9.7520  -31.4110 C   0  0  0  0  0  0  0  0  0  0  0  0
  -29.5190   -9.6740  -31.9370 O   0  0  0  0  0  0  0  0  0  0  0  0
  -28.0620  -11.2360  -31.0780 C   0  0  0  0  0  0  0  0  0  0  0  0
  -28.8200  -11.8070  -29.8350 C   0  0  0  0  0  0  0  0  0  0  0  0
  -29.6340  -12.9210  -29.8920 C   0  0  0  0  0  0  0  0  0  0  0  0
  -28.7010  -11.1530  -28.6040 C   0  0  0  0  0  0  0  0  0  0  0  0
  -30.3240  -13.4090  -28.8000 C   0  0  0  0  0  0  0  0  0  0  0  0
  -30.1980  -12.7540  -27.5870 C   0  0  0  0  0  0  0  0  0  0  0  0
  -29.3840  -11.6270  -27.4970 C   0  0  0  0  0  0  0  0  0  0  0  0
  1  2  2  0
  1  3  1  0
  1  6  1  0
  2  4  1  0
  3  8  1  0
  4  5  2  0
  5  6  1  0
  6  7  1  0
  8  9  2  0
  8 10  1  0
 10 11  1  0
 11 12  2  0
 11 13  1  0
 12 14  1  0
 13 16  2  0
 14 15  2  0
 15 16  1  0
M  END
>  <name>  (41) 
Car Nac Nd0 Car Nac Nac Cs3 Cs2 .=O Cs3 Car Car Car Car Car Car

>  <indices>  (41) 
[0, 1, 2]

>  <tasks>  (41) 
probe_placing close_aromatic_ring close_aromatic_ring close_aromatic_ring ring_built build_to_Nac build_to_Nd0 build_DB_to_Cs2 build_SB_to_Cs2 no_task close_aromatic_ring close_aromatic_ring close_aromatic_ring close_aromatic_ring

>  <prot_clashes>  (41) 
4

>  <NBS phar>  (41) 
0.32

>  <NBS_non-phar>  (41) 
0.5526610016822815

>  <NBS>  (41) 
0.8726610016822816

>  <source_stage>  (41) 
scored

>  <source_iter>  (41) 
13

>  <source_parent_mol>  (41) 
1

>  <source_scenario>  (41) 
1 2 3 1 0 0 0 1 7 5 5 1 1

>  <source_rank_in_scored_call>  (41) 
2

>  <source_current_task>  (41) 
close_aromatic_ring

>  <scenario>  (41) 
1 2 3 1 0 0 0 1 7 5 5 1

>  <protected_ring_attachments>  (41) 
3,1,0,2|1,0,2;4,5,0,2|5,0,2

>  <current_task>  (41) 
no_task

>  <rotatable_bond_torsions>  (41) 
1,0,2,7;0,2,7,9;2,7,9,10;7,9,10,11;10,11,13,14

$$$$

     RDKit          3D

 15 16  0  0  0  0  0  0  0  0999 V2000
  -27.8520   -7.4200  -31.2360 C   0  0  0  0  0  0  0  0  0  0  0  0
  -27.6910   -6.7660  -32.4230 N   0  0  0  0  0  0  0  0  0  0  0  0
  -27.4910   -8.8720  -31.1110 N   0  0  0  0  0  0  0  0  0  0  0  0
  -28.0540   -5.4830  -32.2570 C   0  0  0  0  0  0  0  0  0  0  0  0
  -28.4400   -5.3540  -30.9570 N   0  0  0  0  0  0  0  0  0  0  0  0
  -28.3180   -6.5210  -30.3480 N   0  0  0  0  0  0  0  0  0  0  0  0
  -28.3480   -6.9520  -28.9260 C   0  0  0  0  0  0  0  0  0  0  0  0
  -28.4070   -9.7600  -31.4330 C   0  0  0  0  0  0  0  0  0  0  0  0
  -29.5140   -9.6750  -31.9670 O   0  0  0  0  0  0  0  0  0  0  0  0
  -28.0630  -11.2500  -31.1200 C   0  0  0  0  0  0  0  0  0  0  0  0
  -28.8290  -11.8260  -29.8360 C   0  0  0  0  0  0  0  0  0  0  0  0
  -29.7690  -12.8490  -29.8150 C   0  0  0  0  0  0  0  0  0  0  0  0
  -30.1570  -13.0810  -28.5810 O   0  0  0  0  0  0  0  0  0  0  0  0
  -28.6670  -11.4450  -28.5210 C   0  0  0  0  0  0  0  0  0  0  0  0
  -29.5190  -12.2620  -27.7770 C   0  0  0  0  0  0  0  0  0  0  0  0
  1  2  2  0
  1  3  1  0
  1  6  1  0
  2  4  1  0
  3  8  1  0
  4  5  2  0
  5  6  1  0
  6  7  1  0
  8  9  2  0
  8 10  1  0
 10 11  1  0
 11 12  2  0
 11 14  1  0
 12 13  1  0
 13 15  1  0
 14 15  2  0
M  END
>  <name>  (42) 
Car Nac Nd0 Car Nac Nac Cs3 Cs2 .=O Cs3 Car Car O_a Car Car

>  <indices>  (42) 
[0, 1, 2]

>  <tasks>  (42) 
probe_placing close_aromatic_ring close_aromatic_ring close_aromatic_ring ring_built build_to_Nac build_to_Nd0 build_DB_to_Cs2 build_SB_to_Cs2 no_task close_aromatic_ring close_aromatic_ring close_aromatic_ring

>  <prot_clashes>  (42) 
3

>  <NBS phar>  (42) 
0.3

>  <NBS_non-phar>  (42) 
0.5943736394246419

>  <NBS>  (42) 
0.894373639424642

>  <source_stage>  (42) 
scored

>  <source_iter>  (42) 
12

>  <source_parent_mol>  (42) 
0

>  <source_scenario>  (42) 
1 2 3 1 0 0 0 1 7 6 2 0

>  <source_rank_in_scored_call>  (42) 
0

>  <source_current_task>  (42) 
close_aromatic_ring

>  <scenario>  (42) 
1 2 3 1 0 0 0 1 7 6 2

>  <protected_ring_attachments>  (42) 
3,1,0,2|1,0,2;4,5,0,2|5,0,2

>  <current_task>  (42) 
no_task

>  <rotatable_bond_torsions>  (42) 
1,0,2,7;0,2,7,9;2,7,9,10;7,9,10,11

$$$$

     RDKit          3D

 16 17  0  0  0  0  0  0  0  0999 V2000
  -27.8510   -7.4170  -31.2390 C   0  0  0  0  0  0  0  0  0  0  0  0
  -27.6880   -6.7660  -32.4270 N   0  0  0  0  0  0  0  0  0  0  0  0
  -27.4910   -8.8690  -31.1100 N   0  0  0  0  0  0  0  0  0  0  0  0
  -28.0500   -5.4820  -32.2650 C   0  0  0  0  0  0  0  0  0  0  0  0
  -28.4380   -5.3510  -30.9660 N   0  0  0  0  0  0  0  0  0  0  0  0
  -28.3170   -6.5150  -30.3540 N   0  0  0  0  0  0  0  0  0  0  0  0
  -28.3490   -6.9440  -28.9310 C   0  0  0  0  0  0  0  0  0  0  0  0
  -28.4070   -9.7570  -31.4320 C   0  0  0  0  0  0  0  0  0  0  0  0
  -29.5140   -9.6740  -31.9660 O   0  0  0  0  0  0  0  0  0  0  0  0
  -28.0640  -11.2470  -31.1150 C   0  0  0  0  0  0  0  0  0  0  0  0
  -28.8460  -11.8130  -29.8330 C   0  0  0  0  0  0  0  0  0  0  0  0
  -29.7530  -12.8630  -29.8400 C   0  0  0  0  0  0  0  0  0  0  0  0
  -30.3870  -13.2590  -28.6800 C   0  0  0  0  0  0  0  0  0  0  0  0
  -30.1490  -12.6320  -27.4670 C   0  0  0  0  0  0  0  0  0  0  0  0
  -29.2480  -11.5870  -27.4590 C   0  0  0  0  0  0  0  0  0  0  0  0
  -28.6080  -11.1810  -28.6100 C   0  0  0  0  0  0  0  0  0  0  0  0
  1  2  2  0
  1  3  1  0
  1  6  1  0
  2  4  1  0
  3  8  1  0
  4  5  2  0
  5  6  1  0
  6  7  1  0
  8  9  2  0
  8 10  1  0
 10 11  1  0
 11 12  2  0
 11 16  1  0
 12 13  1  0
 13 14  2  0
 14 15  1  0
 15 16  2  0
M  END
>  <name>  (43) 
Car Nac Nd0 Car Nac Nac Cs3 Cs2 .=O Cs3 Car Car Car Car Car Car

>  <indices>  (43) 
[0, 1, 2]

>  <tasks>  (43) 
probe_placing close_aromatic_ring close_aromatic_ring close_aromatic_ring ring_built build_to_Nac build_to_Nd0 build_DB_to_Cs2 build_SB_to_Cs2 no_task close_aromatic_ring close_aromatic_ring close_aromatic_ring close_aromatic_ring

>  <prot_clashes>  (43) 
3

>  <NBS phar>  (43) 
0.32

>  <NBS_non-phar>  (43) 
0.547673225402832

>  <NBS>  (43) 
0.8676732254028321

>  <source_stage>  (43) 
scored

>  <source_iter>  (43) 
13

>  <source_parent_mol>  (43) 
2

>  <source_scenario>  (43) 
1 2 3 1 0 0 0 1 7 6 3 2 2

>  <source_rank_in_scored_call>  (43) 
0

>  <source_current_task>  (43) 
close_aromatic_ring

>  <scenario>  (43) 
1 2 3 1 0 0 0 1 7 6 3 2

>  <protected_ring_attachments>  (43) 
3,1,0,2|1,0,2;4,5,0,2|5,0,2

>  <current_task>  (43) 
no_task

>  <rotatable_bond_torsions>  (43) 
1,0,2,7;0,2,7,9;2,7,9,10;7,9,10,11;10,11,12,13

$$$$

     RDKit          3D

 16 17  0  0  0  0  0  0  0  0999 V2000
  -27.8500   -7.4180  -31.2440 C   0  0  0  0  0  0  0  0  0  0  0  0
  -27.6890   -6.7670  -32.4320 N   0  0  0  0  0  0  0  0  0  0  0  0
  -27.4900   -8.8690  -31.1150 N   0  0  0  0  0  0  0  0  0  0  0  0
  -28.0510   -5.4830  -32.2700 C   0  0  0  0  0  0  0  0  0  0  0  0
  -28.4370   -5.3510  -30.9700 N   0  0  0  0  0  0  0  0  0  0  0  0
  -28.3150   -6.5150  -30.3580 N   0  0  0  0  0  0  0  0  0  0  0  0
  -28.3450   -6.9440  -28.9350 C   0  0  0  0  0  0  0  0  0  0  0  0
  -28.4070   -9.7580  -31.4350 C   0  0  0  0  0  0  0  0  0  0  0  0
  -29.5140   -9.6750  -31.9680 O   0  0  0  0  0  0  0  0  0  0  0  0
  -28.0630  -11.2470  -31.1190 C   0  0  0  0  0  0  0  0  0  0  0  0
  -28.8480  -11.7940  -29.8110 C   0  0  0  0  0  0  0  0  0  0  0  0
  -29.7340  -12.8580  -29.8290 C   0  0  0  0  0  0  0  0  0  0  0  0
  -30.3780  -13.2560  -28.6740 C   0  0  0  0  0  0  0  0  0  0  0  0
  -30.1680  -12.6180  -27.4620 C   0  0  0  0  0  0  0  0  0  0  0  0
  -28.6360  -11.1540  -28.6010 C   0  0  0  0  0  0  0  0  0  0  0  0
  -29.2830  -11.5580  -27.4490 C   0  0  0  0  0  0  0  0  0  0  0  0
  1  2  2  0
  1  3  1  0
  1  6  1  0
  2  4  1  0
  3  8  1  0
  4  5  2  0
  5  6  1  0
  6  7  1  0
  8  9  2  0
  8 10  1  0
 10 11  1  0
 11 12  2  0
 11 15  1  0
 12 13  1  0
 13 14  2  0
 14 16  1  0
 15 16  2  0
M  END
>  <name>  (44) 
Car Nac Nd0 Car Nac Nac Cs3 Cs2 .=O Cs3 Car Car Car Car Car Car

>  <indices>  (44) 
[0, 1, 2]

>  <tasks>  (44) 
probe_placing close_aromatic_ring close_aromatic_ring close_aromatic_ring ring_built build_to_Nac build_to_Nd0 build_DB_to_Cs2 build_SB_to_Cs2 no_task close_aromatic_ring close_aromatic_ring close_aromatic_ring close_aromatic_ring

>  <prot_clashes>  (44) 
3

>  <NBS phar>  (44) 
0.3

>  <NBS_non-phar>  (44) 
0.5555070638656616

>  <NBS>  (44) 
0.8555070638656617

>  <source_stage>  (44) 
scored

>  <source_iter>  (44) 
13

>  <source_parent_mol>  (44) 
3

>  <source_scenario>  (44) 
1 2 3 1 0 0 0 1 7 6 3 2 3

>  <source_rank_in_scored_call>  (44) 
0

>  <source_current_task>  (44) 
close_aromatic_ring

>  <scenario>  (44) 
1 2 3 1 0 0 0 1 7 6 3 2

>  <protected_ring_attachments>  (44) 
3,1,0,2|1,0,2;4,5,0,2|5,0,2

>  <current_task>  (44) 
no_task

>  <rotatable_bond_torsions>  (44) 
1,0,2,7;0,2,7,9;2,7,9,10;7,9,10,11;10,11,12,13

$$$$

     RDKit          3D

 15 16  0  0  0  0  0  0  0  0999 V2000
  -27.8520   -7.4200  -31.2360 C   0  0  0  0  0  0  0  0  0  0  0  0
  -27.6910   -6.7670  -32.4230 N   0  0  0  0  0  0  0  0  0  0  0  0
  -27.4910   -8.8720  -31.1110 N   0  0  0  0  0  0  0  0  0  0  0  0
  -28.0530   -5.4830  -32.2570 C   0  0  0  0  0  0  0  0  0  0  0  0
  -28.4390   -5.3540  -30.9580 N   0  0  0  0  0  0  0  0  0  0  0  0
  -28.3170   -6.5210  -30.3480 N   0  0  0  0  0  0  0  0  0  0  0  0
  -28.3470   -6.9520  -28.9260 C   0  0  0  0  0  0  0  0  0  0  0  0
  -28.4080   -9.7600  -31.4330 C   0  0  0  0  0  0  0  0  0  0  0  0
  -29.5150   -9.6750  -31.9670 O   0  0  0  0  0  0  0  0  0  0  0  0
  -28.0650  -11.2500  -31.1190 C   0  0  0  0  0  0  0  0  0  0  0  0
  -28.8470  -11.8410  -29.8200 C   0  0  0  0  0  0  0  0  0  0  0  0
  -29.7760  -12.8580  -29.8360 C   0  0  0  0  0  0  0  0  0  0  0  0
  -28.6710  -11.4450  -28.5080 C   0  0  0  0  0  0  0  0  0  0  0  0
  -29.5140  -12.2500  -27.7670 C   0  0  0  0  0  0  0  0  0  0  0  0
  -30.1440  -13.0660  -28.5930 O   0  0  0  0  0  0  0  0  0  0  0  0
  1  2  2  0
  1  3  1  0
  1  6  1  0
  2  4  1  0
  3  8  1  0
  4  5  2  0
  5  6  1  0
  6  7  1  0
  8  9  2  0
  8 10  1  0
 10 11  1  0
 11 12  2  0
 11 13  1  0
 12 15  1  0
 13 14  2  0
 14 15  1  0
M  END
>  <name>  (45) 
Car Nac Nd0 Car Nac Nac Cs3 Cs2 .=O Cs3 Car Car Car Car O_a

>  <indices>  (45) 
[0, 1, 2]

>  <tasks>  (45) 
probe_placing close_aromatic_ring close_aromatic_ring close_aromatic_ring ring_built build_to_Nac build_to_Nd0 build_DB_to_Cs2 build_SB_to_Cs2 no_task close_aromatic_ring close_aromatic_ring close_aromatic_ring

>  <prot_clashes>  (45) 
3

>  <NBS phar>  (45) 
0.3

>  <NBS_non-phar>  (45) 
0.5944512685139974

>  <NBS>  (45) 
0.8944512685139974

>  <source_stage>  (45) 
scored

>  <source_iter>  (45) 
12

>  <source_parent_mol>  (45) 
0

>  <source_scenario>  (45) 
1 2 3 1 0 0 0 1 7 6 5 0

>  <source_rank_in_scored_call>  (45) 
0

>  <source_current_task>  (45) 
close_aromatic_ring

>  <scenario>  (45) 
1 2 3 1 0 0 0 1 7 6 5

>  <protected_ring_attachments>  (45) 
3,1,0,2|1,0,2;4,5,0,2|5,0,2

>  <current_task>  (45) 
no_task

>  <rotatable_bond_torsions>  (45) 
1,0,2,7;0,2,7,9;2,7,9,10;7,9,10,12;9,10,12,13

$$$$

     RDKit          3D

 16 17  0  0  0  0  0  0  0  0999 V2000
  -27.8530   -7.3920  -31.2700 C   0  0  0  0  0  0  0  0  0  0  0  0
  -27.6980   -6.7630  -32.4700 N   0  0  0  0  0  0  0  0  0  0  0  0
  -27.4900   -8.8430  -31.1190 N   0  0  0  0  0  0  0  0  0  0  0  0
  -28.0600   -5.4760  -32.3270 C   0  0  0  0  0  0  0  0  0  0  0  0
  -28.4400   -5.3230  -31.0280 N   0  0  0  0  0  0  0  0  0  0  0  0
  -28.3130   -6.4750  -30.3980 N   0  0  0  0  0  0  0  0  0  0  0  0
  -28.3360   -6.8800  -28.9670 C   0  0  0  0  0  0  0  0  0  0  0  0
  -28.4090   -9.7350  -31.4160 C   0  0  0  0  0  0  0  0  0  0  0  0
  -29.5180   -9.6620  -31.9470 O   0  0  0  0  0  0  0  0  0  0  0  0
  -28.0630  -11.2190  -31.0760 C   0  0  0  0  0  0  0  0  0  0  0  0
  -28.8440  -11.7960  -29.8910 C   0  0  0  0  0  0  0  0  0  0  0  0
  -29.5450  -12.9780  -29.8880 C   0  0  0  0  0  0  0  0  0  0  0  0
  -28.8490  -10.9220  -28.8360 C   0  0  0  0  0  0  0  0  0  0  0  0
  -30.2810  -13.2830  -28.7640 C   0  0  0  0  0  0  0  0  0  0  0  0
  -30.3170  -12.4290  -27.6680 C   0  0  0  0  0  0  0  0  0  0  0  0
  -29.6000  -11.2620  -27.7220 C   0  0  0  0  0  0  0  0  0  0  0  0
  1  2  2  0
  1  3  1  0
  1  6  1  0
  2  4  1  0
  3  8  1  0
  4  5  2  0
  5  6  1  0
  6  7  1  0
  8  9  2  0
  8 10  1  0
 10 11  1  0
 11 12  2  0
 11 13  1  0
 12 14  1  0
 13 16  2  0
 14 15  2  0
 15 16  1  0
M  END
>  <name>  (46) 
Car Nac Nd0 Car Nac Nac Cs3 Cs2 .=O Cs3 Car Car Car Car Car Car

>  <indices>  (46) 
[0, 1, 2]

>  <tasks>  (46) 
probe_placing close_aromatic_ring close_aromatic_ring close_aromatic_ring ring_built build_to_Nac build_to_Nd0 build_DB_to_Cs2 build_SB_to_Cs2 no_task close_aromatic_ring close_aromatic_ring close_aromatic_ring close_aromatic_ring

>  <prot_clashes>  (46) 
4

>  <NBS phar>  (46) 
0.32

>  <NBS_non-phar>  (46) 
0.5941628217697144

>  <NBS>  (46) 
0.9141628217697144

>  <source_stage>  (46) 
scored

>  <source_iter>  (46) 
13

>  <source_parent_mol>  (46) 
1

>  <source_scenario>  (46) 
1 2 3 1 0 0 0 1 7 7 6 2 1

>  <source_rank_in_scored_call>  (46) 
1

>  <source_current_task>  (46) 
close_aromatic_ring

>  <scenario>  (46) 
1 2 3 1 0 0 0 1 7 7 6 2

>  <protected_ring_attachments>  (46) 
3,1,0,2|1,0,2;4,5,0,2|5,0,2

>  <current_task>  (46) 
no_task

>  <rotatable_bond_torsions>  (46) 
1,0,2,7;0,2,7,9;2,7,9,10;7,9,10,11;9,10,11,13

$$$$

     RDKit          3D

 16 17  0  0  0  0  0  0  0  0999 V2000
  -27.8570   -7.4020  -31.2740 C   0  0  0  0  0  0  0  0  0  0  0  0
  -27.7050   -6.7660  -32.4710 N   0  0  0  0  0  0  0  0  0  0  0  0
  -27.4970   -8.8540  -31.1340 N   0  0  0  0  0  0  0  0  0  0  0  0
  -28.0630   -5.4780  -32.3180 C   0  0  0  0  0  0  0  0  0  0  0  0
  -28.4360   -5.3320  -31.0170 N   0  0  0  0  0  0  0  0  0  0  0  0
  -28.3100   -6.4890  -30.3940 N   0  0  0  0  0  0  0  0  0  0  0  0
  -28.3260   -6.9020  -28.9660 C   0  0  0  0  0  0  0  0  0  0  0  0
  -28.4200   -9.7420  -31.4310 C   0  0  0  0  0  0  0  0  0  0  0  0
  -29.5310   -9.6620  -31.9560 O   0  0  0  0  0  0  0  0  0  0  0  0
  -28.0770  -11.2290  -31.1020 C   0  0  0  0  0  0  0  0  0  0  0  0
  -28.8420  -11.7510  -29.8250 C   0  0  0  0  0  0  0  0  0  0  0  0
  -29.6810  -12.8660  -29.8890 C   0  0  0  0  0  0  0  0  0  0  0  0
  -28.6360  -11.0900  -28.6410 C   0  0  0  0  0  0  0  0  0  0  0  0
  -30.3300  -13.3350  -28.7450 C   0  0  0  0  0  0  0  0  0  0  0  0
  -30.1230  -12.6740  -27.5600 C   0  0  0  0  0  0  0  0  0  0  0  0
  -29.2880  -11.5620  -27.4970 C   0  0  0  0  0  0  0  0  0  0  0  0
  1  2  2  0
  1  3  1  0
  1  6  1  0
  2  4  1  0
  3  8  1  0
  4  5  2  0
  5  6  1  0
  6  7  1  0
  8  9  2  0
  8 10  1  0
 10 11  1  0
 11 12  2  0
 11 13  1  0
 12 14  1  0
 13 16  2  0
 14 15  2  0
 15 16  1  0
M  END
>  <name>  (47) 
Car Nac Nd0 Car Nac Nac Cs3 Cs2 .=O Cs3 Car Car Car Car Car Car

>  <indices>  (47) 
[0, 1, 2]

>  <tasks>  (47) 
probe_placing close_aromatic_ring close_aromatic_ring close_aromatic_ring ring_built build_to_Nac build_to_Nd0 build_DB_to_Cs2 build_SB_to_Cs2 no_task close_aromatic_ring close_aromatic_ring close_aromatic_ring close_aromatic_ring

>  <prot_clashes>  (47) 
4

>  <NBS phar>  (47) 
0.32

>  <NBS_non-phar>  (47) 
0.5571020841598511

>  <NBS>  (47) 
0.8771020841598511

>  <source_stage>  (47) 
scored

>  <source_iter>  (47) 
13

>  <source_parent_mol>  (47) 
1

>  <source_scenario>  (47) 
1 2 3 1 0 0 0 1 7 7 6 2 1

>  <source_rank_in_scored_call>  (47) 
2

>  <source_current_task>  (47) 
close_aromatic_ring

>  <scenario>  (47) 
1 2 3 1 0 0 0 1 7 7 6 2

>  <protected_ring_attachments>  (47) 
3,1,0,2|1,0,2;4,5,0,2|5,0,2

>  <current_task>  (47) 
no_task

>  <rotatable_bond_torsions>  (47) 
1,0,2,7;0,2,7,9;2,7,9,10;7,9,10,11;9,10,11,13

$$$$

     RDKit          3D

 17 18  0  0  0  0  0  0  0  0999 V2000
  -27.8500   -7.3930  -31.2660 C   0  0  0  0  0  0  0  0  0  0  0  0
  -27.7020   -6.7700  -32.4710 N   0  0  0  0  0  0  0  0  0  0  0  0
  -27.4880   -8.8430  -31.1100 N   0  0  0  0  0  0  0  0  0  0  0  0
  -28.0620   -5.4810  -32.3310 C   0  0  0  0  0  0  0  0  0  0  0  0
  -28.4330   -5.3210  -31.0310 N   0  0  0  0  0  0  0  0  0  0  0  0
  -28.3030   -6.4710  -30.3950 N   0  0  0  0  0  0  0  0  0  0  0  0
  -28.3170   -6.8680  -28.9620 C   0  0  0  0  0  0  0  0  0  0  0  0
  -28.4090   -9.7350  -31.3960 C   0  0  0  0  0  0  0  0  0  0  0  0
  -29.5220   -9.6640  -31.9200 O   0  0  0  0  0  0  0  0  0  0  0  0
  -28.0630  -11.2180  -31.0510 C   0  0  0  0  0  0  0  0  0  0  0  0
  -28.8060  -11.7160  -29.8110 C   0  0  0  0  0  0  0  0  0  0  0  0
  -29.6800  -12.8840  -29.8460 C   0  0  0  0  0  0  0  0  0  0  0  0
  -28.6330  -11.0870  -28.6600 C   0  0  0  0  0  0  0  0  0  0  0  0
  -30.2910  -13.3120  -28.7610 C   0  0  0  0  0  0  0  0  0  0  0  0
  -30.1640  -12.6780  -27.4270 C   0  0  0  0  0  0  0  0  0  0  0  0
  -29.2830  -11.5340  -27.4810 N   0  0  0  0  0  0  0  0  0  0  0  0
  -30.7390  -13.0780  -26.3980 O   0  0  0  0  0  0  0  0  0  0  0  0
  1  2  2  0
  1  3  1  0
  1  6  1  0
  2  4  1  0
  3  8  1  0
  4  5  2  0
  5  6  1  0
  6  7  1  0
  8  9  2  0
  8 10  1  0
 10 11  1  0
 11 12  1  0
 11 13  2  0
 12 14  2  0
 13 16  1  0
 14 15  1  0
 15 16  1  0
 15 17  2  0
M  END
>  <name>  (48) 
Car Nac Nd0 Car Nac Nac Cs3 Cs2 .=O Cs3 Car Car Car Car Car Nd0 .=O

>  <indices>  (48) 
[0, 1, 2]

>  <tasks>  (48) 
probe_placing close_aromatic_ring close_aromatic_ring close_aromatic_ring ring_built build_to_Nac build_to_Nd0 build_DB_to_Cs2 build_SB_to_Cs2 no_task close_aromatic_ring close_aromatic_ring close_aromatic_ring close_aromatic_ring close_aromatic_ring

>  <prot_clashes>  (48) 
4

>  <NBS phar>  (48) 
0.34

>  <NBS_non-phar>  (48) 
0.5451507568359375

>  <NBS>  (48) 
0.8851507568359376

>  <source_stage>  (48) 
scored

>  <source_iter>  (48) 
14

>  <source_parent_mol>  (48) 
0

>  <source_scenario>  (48) 
1 2 3 1 0 0 0 1 7 7 6 2 1 0

>  <source_rank_in_scored_call>  (48) 
6

>  <source_current_task>  (48) 
fix_Car

>  <scenario>  (48) 
1 2 3 1 0 0 0 1 7 7 6 2 1

>  <protected_ring_attachments>  (48) 
3,1,0,2|1,0,2;4,5,0,2|5,0,2

>  <current_task>  (48) 
no_task

>  <rotatable_bond_torsions>  (48) 
1,0,2,7;0,2,7,9;2,7,9,10;7,9,10,11

$$$$

     RDKit          3D

 16 17  0  0  0  0  0  0  0  0999 V2000
  -27.8310   -7.1120  -30.7780 C   0  0  0  0  0  0  0  0  0  0  0  0
  -27.6730   -7.0000  -32.1280 N   0  0  0  0  0  0  0  0  0  0  0  0
  -27.4640   -8.3840  -30.0700 N   0  0  0  0  0  0  0  0  0  0  0  0
  -28.0410   -5.7620  -32.5000 C   0  0  0  0  0  0  0  0  0  0  0  0
  -28.4240   -5.1140  -31.3650 N   0  0  0  0  0  0  0  0  0  0  0  0
  -28.2980   -5.9280  -30.3330 N   0  0  0  0  0  0  0  0  0  0  0  0
  -28.3250   -5.7410  -28.8590 C   0  0  0  0  0  0  0  0  0  0  0  0
  -28.3790   -9.3300  -29.9990 C   0  0  0  0  0  0  0  0  0  0  0  0
  -29.4860   -9.4730  -30.5170 O   0  0  0  0  0  0  0  0  0  0  0  0
  -28.0290  -10.5590  -29.1020 C   0  0  0  0  0  0  0  0  0  0  0  0
  -29.0820  -11.6450  -28.8190 C   0  0  0  0  0  0  0  0  0  0  0  0
  -29.5320  -11.8140  -27.5110 C   0  0  0  0  0  0  0  0  0  0  0  0
  -30.4770  -12.7880  -27.2010 C   0  0  0  0  0  0  0  0  0  0  0  0
  -30.9770  -13.5990  -28.2000 C   0  0  0  0  0  0  0  0  0  0  0  0
  -29.5940  -12.4660  -29.8030 C   0  0  0  0  0  0  0  0  0  0  0  0
  -30.5400  -13.4480  -29.5180 C   0  0  0  0  0  0  0  0  0  0  0  0
  1  2  2  0
  1  6  1  0
  1  3  1  0
  2  4  1  0
  3  8  1  0
  4  5  2  0
  5  6  1  0
  6  7  1  0
  8  9  2  0
  8 10  1  0
 10 11  1  0
 11 15  1  0
 11 12  2  0
 12 13  1  0
 13 14  2  0
 14 16  1  0
 15 16  2  0
M  END
>  <name>  (49) 
Car Nac Nd0 Car Nac Nac Cs3 Cs2 .=O Cs3 Car Car Car Car Car Car

>  <indices>  (49) 
[0, 1, 2]

>  <tasks>  (49) 
probe_placing close_aromatic_ring close_aromatic_ring close_aromatic_ring ring_built build_to_Nac build_to_Nd0 build_DB_to_Cs2 build_SB_to_Cs2 no_task close_aromatic_ring close_aromatic_ring close_aromatic_ring close_aromatic_ring

>  <prot_clashes>  (49) 
2

>  <NBS phar>  (49) 
0.1

>  <NBS_non-phar>  (49) 
0.36801573634147644

>  <NBS>  (49) 
0.4680157363414764

>  <source_stage>  (49) 
scored

>  <source_iter>  (49) 
13

>  <source_parent_mol>  (49) 
2

>  <source_scenario>  (49) 
1 2 3 1 0 0 0 1 9 1 4 2 2

>  <source_rank_in_scored_call>  (49) 
1

>  <source_current_task>  (49) 
close_aromatic_ring

>  <scenario>  (49) 
1 2 3 1 0 0 0 1 9 1 4 2

>  <protected_ring_attachments>  (49) 
3,1,0,2|1,0,2;4,5,0,2|5,0,2

>  <current_task>  (49) 
no_task

>  <rotatable_bond_torsions>  (49) 
1,0,2,7;0,2,7,9;2,7,9,10;7,9,10,11;10,11,12,13

$$$$

     RDKit          3D

 17 18  0  0  0  0  0  0  0  0999 V2000
  -27.8630   -7.1320  -30.8100 C   0  0  0  0  0  0  0  0  0  0  0  0
  -27.6880   -6.9470  -32.1510 N   0  0  0  0  0  0  0  0  0  0  0  0
  -27.4980   -8.4390  -30.1670 N   0  0  0  0  0  0  0  0  0  0  0  0
  -28.0580   -5.6940  -32.4610 C   0  0  0  0  0  0  0  0  0  0  0  0
  -28.4590   -5.1090  -31.2970 N   0  0  0  0  0  0  0  0  0  0  0  0
  -28.3410   -5.9760  -30.3090 N   0  0  0  0  0  0  0  0  0  0  0  0
  -28.3870   -5.8690  -28.8270 C   0  0  0  0  0  0  0  0  0  0  0  0
  -28.4090   -9.3910  -30.1580 C   0  0  0  0  0  0  0  0  0  0  0  0
  -29.5080   -9.5110  -30.6970 O   0  0  0  0  0  0  0  0  0  0  0  0
  -28.0630  -10.6650  -29.3240 C   0  0  0  0  0  0  0  0  0  0  0  0
  -29.1190  -11.7590  -29.0330 C   0  0  0  0  0  0  0  0  0  0  0  0
  -29.5480  -11.9810  -27.8060 C   0  0  0  0  0  0  0  0  0  0  0  0
  -30.5390  -13.0130  -27.5400 C   0  0  0  0  0  0  0  0  0  0  0  0
  -31.0000  -13.7230  -28.5490 C   0  0  0  0  0  0  0  0  0  0  0  0
  -29.5660  -12.4910  -30.2310 C   0  0  0  0  0  0  0  0  0  0  0  0
  -30.5410  -13.4860  -29.8680 N   0  0  0  0  0  0  0  0  0  0  0  0
  -29.1590  -12.2800  -31.3880 O   0  0  0  0  0  0  0  0  0  0  0  0
  1  2  2  0
  1  6  1  0
  1  3  1  0
  2  4  1  0
  3  8  1  0
  4  5  2  0
  5  6  1  0
  6  7  1  0
  8  9  2  0
  8 10  1  0
 10 11  1  0
 11 15  1  0
 11 12  2  0
 12 13  1  0
 13 14  2  0
 14 16  1  0
 15 17  2  0
 15 16  1  0
M  END
>  <name>  (50) 
Car Nac Nd0 Car Nac Nac Cs3 Cs2 .=O Cs3 Car Car Car Car Car Nd0 .=O

>  <indices>  (50) 
[0, 1, 2]

>  <tasks>  (50) 
probe_placing close_aromatic_ring close_aromatic_ring close_aromatic_ring ring_built build_to_Nac build_to_Nd0 build_DB_to_Cs2 build_SB_to_Cs2 no_task close_aromatic_ring close_aromatic_ring close_aromatic_ring close_aromatic_ring close_aromatic_ring

>  <prot_clashes>  (50) 
3

>  <NBS phar>  (50) 
0.1

>  <NBS_non-phar>  (50) 
0.35379987604477825

>  <NBS>  (50) 
0.4537998760447782

>  <source_stage>  (50) 
scored

>  <source_iter>  (50) 
14

>  <source_parent_mol>  (50) 
0

>  <source_scenario>  (50) 
1 2 3 1 0 0 0 1 9 1 4 2 2 0

>  <source_rank_in_scored_call>  (50) 
2

>  <source_current_task>  (50) 
fix_Car

>  <scenario>  (50) 
1 2 3 1 0 0 0 1 9 1 4 2 2

>  <protected_ring_attachments>  (50) 
3,1,0,2|1,0,2;4,5,0,2|5,0,2

>  <current_task>  (50) 
no_task

>  <rotatable_bond_torsions>  (50) 
1,0,2,7;0,2,7,9;2,7,9,10;7,9,10,11

$$$$

     RDKit          3D

 16 17  0  0  0  0  0  0  0  0999 V2000
  -27.9100   -7.4400  -31.1820 C   0  0  0  0  0  0  0  0  0  0  0  0
  -27.6790   -6.9700  -32.4410 N   0  0  0  0  0  0  0  0  0  0  0  0
  -27.3540   -8.7680  -30.7510 N   0  0  0  0  0  0  0  0  0  0  0  0
  -28.2510   -5.7600  -32.5560 C   0  0  0  0  0  0  0  0  0  0  0  0
  -28.8340   -5.4910  -31.3540 N   0  0  0  0  0  0  0  0  0  0  0  0
  -28.6270   -6.5040  -30.5330 N   0  0  0  0  0  0  0  0  0  0  0  0
  -28.7940   -6.6980  -29.0690 C   0  0  0  0  0  0  0  0  0  0  0  0
  -28.0700   -9.8420  -31.0090 C   0  0  0  0  0  0  0  0  0  0  0  0
  -29.0890  -10.0380  -31.6730 O   0  0  0  0  0  0  0  0  0  0  0  0
  -27.5550  -11.1780  -30.3890 C   0  0  0  0  0  0  0  0  0  0  0  0
  -28.4110  -12.4670  -30.4880 C   0  0  0  0  0  0  0  0  0  0  0  0
  -28.6830  -13.1090  -31.6670 C   0  0  0  0  0  0  0  0  0  0  0  0
  -29.4120  -14.2830  -31.7530 C   0  0  0  0  0  0  0  0  0  0  0  0
  -28.8930  -13.0210  -29.3090 C   0  0  0  0  0  0  0  0  0  0  0  0
  -29.6280  -14.2010  -29.3740 C   0  0  0  0  0  0  0  0  0  0  0  0
  -29.8890  -14.8300  -30.5710 C   0  0  0  0  0  0  0  0  0  0  0  0
  1  2  2  0
  1  3  1  0
  1  6  1  0
  2  4  1  0
  3  8  1  0
  4  5  2  0
  5  6  1  0
  6  7  1  0
  8  9  2  0
  8 10  1  0
 10 11  1  0
 11 12  2  0
 11 14  1  0
 12 13  1  0
 13 16  2  0
 14 15  2  0
 15 16  1  0
M  END
>  <name>  (51) 
Car Nac Nd0 Car Nac Nac Cs3 Cs2 .=O Cs3 Car Car Car Car Car Car

>  <indices>  (51) 
[0, 1, 2]

>  <tasks>  (51) 
probe_placing close_aromatic_ring close_aromatic_ring close_aromatic_ring ring_built build_to_Nac build_to_Nd0 build_DB_to_Cs2 build_SB_to_Cs2 no_task close_aromatic_ring close_aromatic_ring close_aromatic_ring close_aromatic_ring

>  <prot_clashes>  (51) 
7

>  <NBS phar>  (51) 
0.1

>  <NBS_non-phar>  (51) 
0.37419164180755615

>  <NBS>  (51) 
0.47419164180755613

>  <source_stage>  (51) 
scored

>  <source_iter>  (51) 
13

>  <source_parent_mol>  (51) 
1

>  <source_scenario>  (51) 
1 2 3 1 0 0 0 1 9 1 4 4 1

>  <source_rank_in_scored_call>  (51) 
1

>  <source_current_task>  (51) 
close_aromatic_ring

>  <scenario>  (51) 
1 2 3 1 0 0 0 1 9 1 4 4

>  <protected_ring_attachments>  (51) 
3,1,0,2|1,0,2;4,5,0,2|5,0,2

>  <current_task>  (51) 
no_task

>  <rotatable_bond_torsions>  (51) 
1,0,2,7;0,2,7,9;2,7,9,10;7,9,10,11;9,10,13,14

$$$$

     RDKit          3D

 16 17  0  0  0  0  0  0  0  0999 V2000
  -27.8020   -7.2450  -31.1290 C   0  0  0  0  0  0  0  0  0  0  0  0
  -27.7430   -6.8590  -32.4360 N   0  0  0  0  0  0  0  0  0  0  0  0
  -27.4530   -8.6500  -30.7330 N   0  0  0  0  0  0  0  0  0  0  0  0
  -28.0670   -5.5570  -32.5140 C   0  0  0  0  0  0  0  0  0  0  0  0
  -28.3260   -5.1460  -31.2420 N   0  0  0  0  0  0  0  0  0  0  0  0
  -28.1660   -6.1630  -30.4140 N   0  0  0  0  0  0  0  0  0  0  0  0
  -28.0680   -6.2870  -28.9360 C   0  0  0  0  0  0  0  0  0  0  0  0
  -28.4110   -9.5530  -30.7780 C   0  0  0  0  0  0  0  0  0  0  0  0
  -29.5610   -9.5420  -31.2180 O   0  0  0  0  0  0  0  0  0  0  0  0
  -28.0620  -10.9550  -30.1880 C   0  0  0  0  0  0  0  0  0  0  0  0
  -29.1060  -12.0260  -29.9700 C   0  0  0  0  0  0  0  0  0  0  0  0
  -29.0370  -13.3080  -30.4670 C   0  0  0  0  0  0  0  0  0  0  0  0
  -30.2370  -11.7000  -29.2370 C   0  0  0  0  0  0  0  0  0  0  0  0
  -31.2580  -12.6150  -29.0100 C   0  0  0  0  0  0  0  0  0  0  0  0
  -31.1630  -13.8870  -29.5190 C   0  0  0  0  0  0  0  0  0  0  0  0
  -30.0410  -14.2350  -30.2550 C   0  0  0  0  0  0  0  0  0  0  0  0
  1  2  2  0
  1  3  1  0
  1  6  1  0
  2  4  1  0
  3  8  1  0
  4  5  2  0
  5  6  1  0
  6  7  1  0
  8  9  2  0
  8 10  1  0
 10 11  1  0
 11 12  2  0
 11 13  1  0
 12 16  1  0
 13 14  2  0
 14 15  1  0
 15 16  2  0
M  END
>  <name>  (52) 
Car Nac Nd0 Car Nac Nac Cs3 Cs2 .=O Cs3 Car Car Car Car Car Car

>  <indices>  (52) 
[0, 1, 2]

>  <tasks>  (52) 
probe_placing close_aromatic_ring close_aromatic_ring close_aromatic_ring ring_built build_to_Nac build_to_Nd0 build_DB_to_Cs2 build_SB_to_Cs2 no_task close_aromatic_ring close_aromatic_ring close_aromatic_ring close_aromatic_ring

>  <prot_clashes>  (52) 
4

>  <NBS phar>  (52) 
0.22000000000000003

>  <NBS_non-phar>  (52) 
0.4331125020980835

>  <NBS>  (52) 
0.6531125020980835

>  <source_stage>  (52) 
scored

>  <source_iter>  (52) 
13

>  <source_parent_mol>  (52) 
3

>  <source_scenario>  (52) 
1 2 3 1 0 0 0 1 9 2 3 3 3

>  <source_rank_in_scored_call>  (52) 
1

>  <source_current_task>  (52) 
close_aromatic_ring

>  <scenario>  (52) 
1 2 3 1 0 0 0 1 9 2 3 3

>  <protected_ring_attachments>  (52) 
3,1,0,2|1,0,2;4,5,0,2|5,0,2

>  <current_task>  (52) 
no_task

>  <rotatable_bond_torsions>  (52) 
1,0,2,7;0,2,7,9;2,7,9,10;7,9,10,12;9,10,12,13

$$$$

     RDKit          3D

 17 18  0  0  0  0  0  0  0  0999 V2000
  -27.8050   -7.2350  -31.1310 C   0  0  0  0  0  0  0  0  0  0  0  0
  -27.7330   -6.8460  -32.4360 N   0  0  0  0  0  0  0  0  0  0  0  0
  -27.4560   -8.6410  -30.7360 N   0  0  0  0  0  0  0  0  0  0  0  0
  -28.0610   -5.5440  -32.5130 C   0  0  0  0  0  0  0  0  0  0  0  0
  -28.3330   -5.1380  -31.2420 N   0  0  0  0  0  0  0  0  0  0  0  0
  -28.1790   -6.1570  -30.4160 N   0  0  0  0  0  0  0  0  0  0  0  0
  -28.0950   -6.2850  -28.9370 C   0  0  0  0  0  0  0  0  0  0  0  0
  -28.4100   -9.5460  -30.7920 C   0  0  0  0  0  0  0  0  0  0  0  0
  -29.5550   -9.5370  -31.2450 O   0  0  0  0  0  0  0  0  0  0  0  0
  -28.0630  -10.9490  -30.2040 C   0  0  0  0  0  0  0  0  0  0  0  0
  -29.0830  -12.0280  -30.0120 C   0  0  0  0  0  0  0  0  0  0  0  0
  -28.9800  -13.2570  -30.4850 C   0  0  0  0  0  0  0  0  0  0  0  0
  -30.2830  -11.6750  -29.2590 C   0  0  0  0  0  0  0  0  0  0  0  0
  -31.2410  -12.5540  -29.0530 C   0  0  0  0  0  0  0  0  0  0  0  0
  -31.2250  -13.9510  -29.5390 C   0  0  0  0  0  0  0  0  0  0  0  0
  -30.0070  -14.2040  -30.2660 N   0  0  0  0  0  0  0  0  0  0  0  0
  -32.1280  -14.7840  -29.3470 O   0  0  0  0  0  0  0  0  0  0  0  0
  1  2  2  0
  1  3  1  0
  1  6  1  0
  2  4  1  0
  3  8  1  0
  4  5  2  0
  5  6  1  0
  6  7  1  0
  8  9  2  0
  8 10  1  0
 10 11  1  0
 11 12  2  0
 11 13  1  0
 12 16  1  0
 13 14  2  0
 14 15  1  0
 15 16  1  0
 15 17  2  0
M  END
>  <name>  (53) 
Car Nac Nd0 Car Nac Nac Cs3 Cs2 .=O Cs3 Car Car Car Car Car Nd0 .=O

>  <indices>  (53) 
[0, 1, 2]

>  <tasks>  (53) 
probe_placing close_aromatic_ring close_aromatic_ring close_aromatic_ring ring_built build_to_Nac build_to_Nd0 build_DB_to_Cs2 build_SB_to_Cs2 no_task close_aromatic_ring close_aromatic_ring close_aromatic_ring close_aromatic_ring close_aromatic_ring

>  <prot_clashes>  (53) 
4

>  <NBS phar>  (53) 
0.24000000000000005

>  <NBS_non-phar>  (53) 
0.46512536441578584

>  <NBS>  (53) 
0.7051253644157859

>  <source_stage>  (53) 
scored

>  <source_iter>  (53) 
14

>  <source_parent_mol>  (53) 
0

>  <source_scenario>  (53) 
1 2 3 1 0 0 0 1 9 2 3 3 3 0

>  <source_rank_in_scored_call>  (53) 
1

>  <source_current_task>  (53) 
fix_Car

>  <scenario>  (53) 
1 2 3 1 0 0 0 1 9 2 3 3 3

>  <protected_ring_attachments>  (53) 
3,1,0,2|1,0,2;4,5,0,2|5,0,2

>  <current_task>  (53) 
no_task

>  <rotatable_bond_torsions>  (53) 
1,0,2,7;0,2,7,9;2,7,9,10;7,9,10,11

$$$$

     RDKit          3D

 16 17  0  0  0  0  0  0  0  0999 V2000
  -27.8010   -7.2350  -31.1310 C   0  0  0  0  0  0  0  0  0  0  0  0
  -27.7150   -6.8430  -32.4340 N   0  0  0  0  0  0  0  0  0  0  0  0
  -27.4540   -8.6400  -30.7330 N   0  0  0  0  0  0  0  0  0  0  0  0
  -28.0440   -5.5440  -32.5120 C   0  0  0  0  0  0  0  0  0  0  0  0
  -28.3310   -5.1400  -31.2440 N   0  0  0  0  0  0  0  0  0  0  0  0
  -28.1850   -6.1590  -30.4170 N   0  0  0  0  0  0  0  0  0  0  0  0
  -28.1170   -6.2890  -28.9380 C   0  0  0  0  0  0  0  0  0  0  0  0
  -28.4040   -9.5480  -30.8000 C   0  0  0  0  0  0  0  0  0  0  0  0
  -29.5470   -9.5400  -31.2650 O   0  0  0  0  0  0  0  0  0  0  0  0
  -28.0640  -10.9520  -30.2110 C   0  0  0  0  0  0  0  0  0  0  0  0
  -29.1270  -12.0440  -30.0190 C   0  0  0  0  0  0  0  0  0  0  0  0
  -30.2520  -11.6590  -29.2890 C   0  0  0  0  0  0  0  0  0  0  0  0
  -31.2570  -12.5770  -29.0510 C   0  0  0  0  0  0  0  0  0  0  0  0
  -29.0360  -13.3380  -30.4920 C   0  0  0  0  0  0  0  0  0  0  0  0
  -31.1650  -13.8690  -29.5240 C   0  0  0  0  0  0  0  0  0  0  0  0
  -30.0380  -14.2560  -30.2550 C   0  0  0  0  0  0  0  0  0  0  0  0
  1  2  2  0
  1  3  1  0
  1  6  1  0
  2  4  1  0
  3  8  1  0
  4  5  2  0
  5  6  1  0
  6  7  1  0
  8  9  2  0
  8 10  1  0
 10 11  1  0
 11 14  1  0
 11 12  2  0
 12 13  1  0
 13 15  2  0
 14 16  2  0
 15 16  1  0
M  END
>  <name>  (54) 
Car Nac Nd0 Car Nac Nac Cs3 Cs2 .=O Cs3 Car Car Car Car Car Car

>  <indices>  (54) 
[0, 1, 2]

>  <tasks>  (54) 
probe_placing close_aromatic_ring close_aromatic_ring close_aromatic_ring ring_built build_to_Nac build_to_Nd0 build_DB_to_Cs2 build_SB_to_Cs2 no_task close_aromatic_ring close_aromatic_ring close_aromatic_ring close_aromatic_ring

>  <prot_clashes>  (54) 
4

>  <NBS phar>  (54) 
0.22000000000000003

>  <NBS_non-phar>  (54) 
0.44953927397727966

>  <NBS>  (54) 
0.6695392739772796

>  <source_stage>  (54) 
scored

>  <source_iter>  (54) 
13

>  <source_parent_mol>  (54) 
4

>  <source_scenario>  (54) 
1 2 3 1 0 0 0 1 9 2 5 3 4

>  <source_rank_in_scored_call>  (54) 
0

>  <source_current_task>  (54) 
close_aromatic_ring

>  <scenario>  (54) 
1 2 3 1 0 0 0 1 9 2 5 3

>  <protected_ring_attachments>  (54) 
3,1,0,2|1,0,2;4,5,0,2|5,0,2

>  <current_task>  (54) 
no_task

>  <rotatable_bond_torsions>  (54) 
1,0,2,7;0,2,7,9;2,7,9,10;7,9,10,11;10,11,12,14

$$$$

     RDKit          3D

 16 17  0  0  0  0  0  0  0  0999 V2000
  -27.8000   -7.2320  -30.9880 C   0  0  0  0  0  0  0  0  0  0  0  0
  -27.6610   -6.9270  -32.3100 N   0  0  0  0  0  0  0  0  0  0  0  0
  -27.4580   -8.6040  -30.4830 N   0  0  0  0  0  0  0  0  0  0  0  0
  -27.9980   -5.6390  -32.4890 C   0  0  0  0  0  0  0  0  0  0  0  0
  -28.3440   -5.1560  -31.2630 N   0  0  0  0  0  0  0  0  0  0  0  0
  -28.2240   -6.1150  -30.3650 N   0  0  0  0  0  0  0  0  0  0  0  0
  -28.2190   -6.1470  -28.8800 C   0  0  0  0  0  0  0  0  0  0  0  0
  -28.3960   -9.5250  -30.5290 C   0  0  0  0  0  0  0  0  0  0  0  0
  -29.5170   -9.5620  -31.0420 O   0  0  0  0  0  0  0  0  0  0  0  0
  -28.0690  -10.8820  -29.8330 C   0  0  0  0  0  0  0  0  0  0  0  0
  -29.1350  -11.8880  -29.5850 C   0  0  0  0  0  0  0  0  0  0  0  0
  -30.2240  -11.5260  -28.8200 C   0  0  0  0  0  0  0  0  0  0  0  0
  -31.2680  -12.4490  -28.7250 C   0  0  0  0  0  0  0  0  0  0  0  0
  -29.0460  -13.0970  -30.2390 C   0  0  0  0  0  0  0  0  0  0  0  0
  -31.2330  -13.6680  -29.3550 C   0  0  0  0  0  0  0  0  0  0  0  0
  -30.1180  -13.9690  -30.1030 C   0  0  0  0  0  0  0  0  0  0  0  0
  1  2  2  0
  1  3  1  0
  1  6  1  0
  2  4  1  0
  3  8  1  0
  4  5  2  0
  5  6  1  0
  6  7  1  0
  8  9  2  0
  8 10  1  0
 10 11  1  0
 11 14  1  0
 11 12  2  0
 12 13  1  0
 13 15  2  0
 14 16  2  0
 15 16  1  0
M  END
>  <name>  (55) 
Car Nac Nd0 Car Nac Nac Cs3 Cs2 .=O Cs3 Car Car Car Car Car Car

>  <indices>  (55) 
[0, 1, 2]

>  <tasks>  (55) 
probe_placing close_aromatic_ring close_aromatic_ring close_aromatic_ring ring_built build_to_Nac build_to_Nd0 build_DB_to_Cs2 build_SB_to_Cs2 no_task close_aromatic_ring close_aromatic_ring close_aromatic_ring close_aromatic_ring

>  <prot_clashes>  (55) 
3

>  <NBS phar>  (55) 
0.2

>  <NBS_non-phar>  (55) 
0.43051496148109436

>  <NBS>  (55) 
0.6305149614810943

>  <source_stage>  (55) 
scored

>  <source_iter>  (55) 
13

>  <source_parent_mol>  (55) 
4

>  <source_scenario>  (55) 
1 2 3 1 0 0 0 1 9 2 5 3 4

>  <source_rank_in_scored_call>  (55) 
2

>  <source_current_task>  (55) 
close_aromatic_ring

>  <scenario>  (55) 
1 2 3 1 0 0 0 1 9 2 5 3

>  <protected_ring_attachments>  (55) 
3,1,0,2|1,0,2;4,5,0,2|5,0,2

>  <current_task>  (55) 
no_task

>  <rotatable_bond_torsions>  (55) 
1,0,2,7;0,2,7,9;2,7,9,10;7,9,10,11;10,11,12,14

$$$$

     RDKit          3D

 17 18  0  0  0  0  0  0  0  0999 V2000
  -27.7910   -7.2210  -31.1350 C   0  0  0  0  0  0  0  0  0  0  0  0
  -27.7110   -6.8280  -32.4390 N   0  0  0  0  0  0  0  0  0  0  0  0
  -27.4470   -8.6290  -30.7420 N   0  0  0  0  0  0  0  0  0  0  0  0
  -28.0360   -5.5270  -32.5130 C   0  0  0  0  0  0  0  0  0  0  0  0
  -28.3140   -5.1240  -31.2420 N   0  0  0  0  0  0  0  0  0  0  0  0
  -28.1660   -6.1450  -30.4180 N   0  0  0  0  0  0  0  0  0  0  0  0
  -28.0900   -6.2780  -28.9400 C   0  0  0  0  0  0  0  0  0  0  0  0
  -28.4000   -9.5330  -30.8040 C   0  0  0  0  0  0  0  0  0  0  0  0
  -29.5460   -9.5200  -31.2620 O   0  0  0  0  0  0  0  0  0  0  0  0
  -28.0620  -10.9380  -30.2180 C   0  0  0  0  0  0  0  0  0  0  0  0
  -29.1520  -11.9770  -29.9920 C   0  0  0  0  0  0  0  0  0  0  0  0
  -30.2210  -11.6340  -29.2930 C   0  0  0  0  0  0  0  0  0  0  0  0
  -31.2940  -12.5850  -29.0320 C   0  0  0  0  0  0  0  0  0  0  0  0
  -28.9370  -13.3240  -30.5710 C   0  0  0  0  0  0  0  0  0  0  0  0
  -31.1830  -13.8110  -29.5120 C   0  0  0  0  0  0  0  0  0  0  0  0
  -30.0450  -14.1800  -30.2610 N   0  0  0  0  0  0  0  0  0  0  0  0
  -27.9380  -13.6630  -31.2310 O   0  0  0  0  0  0  0  0  0  0  0  0
  1  2  2  0
  1  3  1  0
  1  6  1  0
  2  4  1  0
  3  8  1  0
  4  5  2  0
  5  6  1  0
  6  7  1  0
  8  9  2  0
  8 10  1  0
 10 11  1  0
 11 14  1  0
 11 12  2  0
 12 13  1  0
 13 15  2  0
 14 17  2  0
 14 16  1  0
 15 16  1  0
M  END
>  <name>  (56) 
Car Nac Nd0 Car Nac Nac Cs3 Cs2 .=O Cs3 Car Car Car Car Car Nd0 .=O

>  <indices>  (56) 
[0, 1, 2]

>  <tasks>  (56) 
probe_placing close_aromatic_ring close_aromatic_ring close_aromatic_ring ring_built build_to_Nac build_to_Nd0 build_DB_to_Cs2 build_SB_to_Cs2 no_task close_aromatic_ring close_aromatic_ring close_aromatic_ring close_aromatic_ring close_aromatic_ring

>  <prot_clashes>  (56) 
4

>  <NBS phar>  (56) 
0.22000000000000003

>  <NBS_non-phar>  (56) 
0.3944276360904469

>  <NBS>  (56) 
0.6144276360904469

>  <source_stage>  (56) 
scored

>  <source_iter>  (56) 
14

>  <source_parent_mol>  (56) 
0

>  <source_scenario>  (56) 
1 2 3 1 0 0 0 1 9 2 5 3 4 0

>  <source_rank_in_scored_call>  (56) 
5

>  <source_current_task>  (56) 
fix_Car

>  <scenario>  (56) 
1 2 3 1 0 0 0 1 9 2 5 3 4

>  <protected_ring_attachments>  (56) 
3,1,0,2|1,0,2;4,5,0,2|5,0,2

>  <current_task>  (56) 
no_task

>  <rotatable_bond_torsions>  (56) 
1,0,2,7;0,2,7,9;2,7,9,10;7,9,10,11

$$$$

     RDKit          3D

 16 17  0  0  0  0  0  0  0  0999 V2000
  -27.7940   -7.2420  -31.1290 C   0  0  0  0  0  0  0  0  0  0  0  0
  -27.7230   -6.8540  -32.4340 N   0  0  0  0  0  0  0  0  0  0  0  0
  -27.4460   -8.6480  -30.7330 N   0  0  0  0  0  0  0  0  0  0  0  0
  -28.0500   -5.5530  -32.5110 C   0  0  0  0  0  0  0  0  0  0  0  0
  -28.3220   -5.1460  -31.2400 N   0  0  0  0  0  0  0  0  0  0  0  0
  -28.1670   -6.1620  -30.4130 N   0  0  0  0  0  0  0  0  0  0  0  0
  -28.0820   -6.2910  -28.9340 C   0  0  0  0  0  0  0  0  0  0  0  0
  -28.4010   -9.5530  -30.7870 C   0  0  0  0  0  0  0  0  0  0  0  0
  -29.5470   -9.5430  -31.2390 O   0  0  0  0  0  0  0  0  0  0  0  0
  -28.0550  -10.9550  -30.1980 C   0  0  0  0  0  0  0  0  0  0  0  0
  -29.1280  -12.0400  -30.0090 C   0  0  0  0  0  0  0  0  0  0  0  0
  -30.2240  -11.7000  -29.2560 C   0  0  0  0  0  0  0  0  0  0  0  0
  -31.2550  -12.5710  -28.9810 C   0  0  0  0  0  0  0  0  0  0  0  0
  -31.1580  -13.8460  -29.5010 C   0  0  0  0  0  0  0  0  0  0  0  0
  -30.0680  -14.2190  -30.2630 C   0  0  0  0  0  0  0  0  0  0  0  0
  -29.0490  -13.3250  -30.5230 C   0  0  0  0  0  0  0  0  0  0  0  0
  1  2  2  0
  1  3  1  0
  1  6  1  0
  2  4  1  0
  3  8  1  0
  4  5  2  0
  5  6  1  0
  6  7  1  0
  8  9  2  0
  8 10  1  0
 10 11  1  0
 11 16  1  0
 11 12  2  0
 12 13  1  0
 13 14  2  0
 14 15  1  0
 15 16  2  0
M  END
>  <name>  (57) 
Car Nac Nd0 Car Nac Nac Cs3 Cs2 .=O Cs3 Car Car Car Car Car Car

>  <indices>  (57) 
[0, 1, 2]

>  <tasks>  (57) 
probe_placing close_aromatic_ring close_aromatic_ring close_aromatic_ring ring_built build_to_Nac build_to_Nd0 build_DB_to_Cs2 build_SB_to_Cs2 no_task close_aromatic_ring close_aromatic_ring close_aromatic_ring close_aromatic_ring

>  <prot_clashes>  (57) 
4

>  <NBS phar>  (57) 
0.22000000000000003

>  <NBS_non-phar>  (57) 
0.4312698543071747

>  <NBS>  (57) 
0.6512698543071747

>  <source_stage>  (57) 
scored

>  <source_iter>  (57) 
13

>  <source_parent_mol>  (57) 
3

>  <source_scenario>  (57) 
1 2 3 1 0 0 0 1 9 2 5 5 3

>  <source_rank_in_scored_call>  (57) 
0

>  <source_current_task>  (57) 
close_aromatic_ring

>  <scenario>  (57) 
1 2 3 1 0 0 0 1 9 2 5 5

>  <protected_ring_attachments>  (57) 
3,1,0,2|1,0,2;4,5,0,2|5,0,2

>  <current_task>  (57) 
no_task

>  <rotatable_bond_torsions>  (57) 
1,0,2,7;0,2,7,9;2,7,9,10;7,9,10,11;10,11,12,13

$$$$

     RDKit          3D

 15 16  0  0  0  0  0  0  0  0999 V2000
  -27.8000   -7.2670  -31.2090 C   0  0  0  0  0  0  0  0  0  0  0  0
  -27.7390   -6.8230  -32.4980 N   0  0  0  0  0  0  0  0  0  0  0  0
  -27.4500   -8.6880  -30.8750 N   0  0  0  0  0  0  0  0  0  0  0  0
  -28.0640   -5.5180  -32.5160 C   0  0  0  0  0  0  0  0  0  0  0  0
  -28.3240   -5.1660  -31.2270 N   0  0  0  0  0  0  0  0  0  0  0  0
  -28.1650   -6.2170  -30.4450 N   0  0  0  0  0  0  0  0  0  0  0  0
  -28.0670   -6.4080  -28.9740 C   0  0  0  0  0  0  0  0  0  0  0  0
  -28.4070   -9.5890  -30.9610 C   0  0  0  0  0  0  0  0  0  0  0  0
  -29.5570   -9.5570  -31.4010 O   0  0  0  0  0  0  0  0  0  0  0  0
  -28.0600  -11.0160  -30.4350 C   0  0  0  0  0  0  0  0  0  0  0  0
  -29.1380  -12.0530  -30.2490 C   0  0  0  0  0  0  0  0  0  0  0  0
  -30.2410  -11.7510  -29.4790 C   0  0  0  0  0  0  0  0  0  0  0  0
  -31.0300  -12.9090  -29.4930 C   0  0  0  0  0  0  0  0  0  0  0  0
  -30.3600  -13.8440  -30.2680 C   0  0  0  0  0  0  0  0  0  0  0  0
  -29.2470  -13.2850  -30.6900 O   0  0  0  0  0  0  0  0  0  0  0  0
  1  2  2  0
  1  3  1  0
  1  6  1  0
  2  4  1  0
  3  8  1  0
  4  5  2  0
  5  6  1  0
  6  7  1  0
  8  9  2  0
  8 10  1  0
 10 11  1  0
 11 15  1  0
 11 12  2  0
 12 13  1  0
 13 14  2  0
 14 15  1  0
M  END
>  <name>  (58) 
Car Nac Nd0 Car Nac Nac Cs3 Cs2 .=O Cs3 Car Car Car Car O_a

>  <indices>  (58) 
[0, 1, 2]

>  <tasks>  (58) 
probe_placing close_aromatic_ring close_aromatic_ring close_aromatic_ring ring_built build_to_Nac build_to_Nd0 build_DB_to_Cs2 build_SB_to_Cs2 no_task close_aromatic_ring close_aromatic_ring close_aromatic_ring

>  <prot_clashes>  (58) 
4

>  <NBS phar>  (58) 
0.3

>  <NBS_non-phar>  (58) 
0.4534255027770996

>  <NBS>  (58) 
0.7534255027770995

>  <source_stage>  (58) 
scored

>  <source_iter>  (58) 
12

>  <source_parent_mol>  (58) 
0

>  <source_scenario>  (58) 
1 2 3 1 0 0 0 1 9 2 6 0

>  <source_rank_in_scored_call>  (58) 
0

>  <source_current_task>  (58) 
close_aromatic_ring

>  <scenario>  (58) 
1 2 3 1 0 0 0 1 9 2 6

>  <protected_ring_attachments>  (58) 
3,1,0,2|1,0,2;4,5,0,2|5,0,2

>  <current_task>  (58) 
no_task

>  <rotatable_bond_torsions>  (58) 
1,0,2,7;0,2,7,9;2,7,9,10;7,9,10,11;10,11,12,13

$$$$

     RDKit          3D

 15 16  0  0  0  0  0  0  0  0999 V2000
  -27.8040   -7.4040  -31.2220 C   0  0  0  0  0  0  0  0  0  0  0  0
  -27.7360   -6.9440  -32.5040 N   0  0  0  0  0  0  0  0  0  0  0  0
  -27.4310   -8.8210  -30.8990 N   0  0  0  0  0  0  0  0  0  0  0  0
  -28.0850   -5.6470  -32.5130 C   0  0  0  0  0  0  0  0  0  0  0  0
  -28.3700   -5.3130  -31.2250 N   0  0  0  0  0  0  0  0  0  0  0  0
  -28.1990   -6.3700  -30.4510 N   0  0  0  0  0  0  0  0  0  0  0  0
  -28.1180   -6.5770  -28.9810 C   0  0  0  0  0  0  0  0  0  0  0  0
  -28.3690   -9.7400  -31.0070 C   0  0  0  0  0  0  0  0  0  0  0  0
  -29.5140   -9.7250  -31.4620 O   0  0  0  0  0  0  0  0  0  0  0  0
  -28.0000  -11.1650  -30.4920 C   0  0  0  0  0  0  0  0  0  0  0  0
  -29.0950  -12.2750  -30.3400 C   0  0  0  0  0  0  0  0  0  0  0  0
  -29.1880  -13.4790  -31.0360 C   0  0  0  0  0  0  0  0  0  0  0  0
  -30.2640  -14.0890  -30.6210 O   0  0  0  0  0  0  0  0  0  0  0  0
  -30.1920  -12.2180  -29.4870 C   0  0  0  0  0  0  0  0  0  0  0  0
  -30.9020  -13.3970  -29.7060 C   0  0  0  0  0  0  0  0  0  0  0  0
  1  2  2  0
  1  3  1  0
  1  6  1  0
  2  4  1  0
  3  8  1  0
  4  5  2  0
  5  6  1  0
  6  7  1  0
  8  9  2  0
  8 10  1  0
 10 11  1  0
 11 12  2  0
 11 14  1  0
 12 13  1  0
 13 15  1  0
 14 15  2  0
M  END
>  <name>  (59) 
Car Nac Nd0 Car Nac Nac Cs3 Cs2 .=O Cs3 Car Car O_a Car Car

>  <indices>  (59) 
[0, 1, 2]

>  <tasks>  (59) 
probe_placing close_aromatic_ring close_aromatic_ring close_aromatic_ring ring_built build_to_Nac build_to_Nd0 build_DB_to_Cs2 build_SB_to_Cs2 no_task close_aromatic_ring close_aromatic_ring close_aromatic_ring

>  <prot_clashes>  (59) 
4

>  <NBS phar>  (59) 
0.34

>  <NBS_non-phar>  (59) 
0.5485996882120768

>  <NBS>  (59) 
0.8885996882120768

>  <source_stage>  (59) 
scored

>  <source_iter>  (59) 
12

>  <source_parent_mol>  (59) 
0

>  <source_scenario>  (59) 
1 2 3 1 0 0 0 1 9 3 0 0

>  <source_rank_in_scored_call>  (59) 
0

>  <source_current_task>  (59) 
close_aromatic_ring

>  <scenario>  (59) 
1 2 3 1 0 0 0 1 9 3 0

>  <protected_ring_attachments>  (59) 
3,1,0,2|1,0,2;4,5,0,2|5,0,2

>  <current_task>  (59) 
no_task

>  <rotatable_bond_torsions>  (59) 
1,0,2,7;0,2,7,9;2,7,9,10;7,9,10,11

$$$$

     RDKit          3D

 15 16  0  0  0  0  0  0  0  0999 V2000
  -27.8050   -7.3650  -31.1670 C   0  0  0  0  0  0  0  0  0  0  0  0
  -27.7200   -6.9440  -32.4620 N   0  0  0  0  0  0  0  0  0  0  0  0
  -27.4460   -8.7750  -30.7990 N   0  0  0  0  0  0  0  0  0  0  0  0
  -28.0620   -5.6450  -32.5130 C   0  0  0  0  0  0  0  0  0  0  0  0
  -28.3580   -5.2720  -31.2360 N   0  0  0  0  0  0  0  0  0  0  0  0
  -28.2020   -6.3070  -30.4330 N   0  0  0  0  0  0  0  0  0  0  0  0
  -28.1390   -6.4720  -28.9550 C   0  0  0  0  0  0  0  0  0  0  0  0
  -28.3900   -9.6910  -30.8920 C   0  0  0  0  0  0  0  0  0  0  0  0
  -29.5290   -9.6820  -31.3580 O   0  0  0  0  0  0  0  0  0  0  0  0
  -28.0360  -11.1030  -30.3320 C   0  0  0  0  0  0  0  0  0  0  0  0
  -29.1330  -12.1980  -30.1620 C   0  0  0  0  0  0  0  0  0  0  0  0
  -29.2290  -13.4120  -30.8160 C   0  0  0  0  0  0  0  0  0  0  0  0
  -30.2450  -12.1090  -29.3170 C   0  0  0  0  0  0  0  0  0  0  0  0
  -30.9550  -13.2880  -29.5130 C   0  0  0  0  0  0  0  0  0  0  0  0
  -30.3310  -14.0360  -30.4020 O   0  0  0  0  0  0  0  0  0  0  0  0
  1  2  2  0
  1  3  1  0
  1  6  1  0
  2  4  1  0
  3  8  1  0
  4  5  2  0
  5  6  1  0
  6  7  1  0
  8  9  2  0
  8 10  1  0
 10 11  1  0
 11 12  2  0
 11 13  1  0
 12 15  1  0
 13 14  2  0
 14 15  1  0
M  END
>  <name>  (60) 
Car Nac Nd0 Car Nac Nac Cs3 Cs2 .=O Cs3 Car Car Car Car O_a

>  <indices>  (60) 
[0, 1, 2]

>  <tasks>  (60) 
probe_placing close_aromatic_ring close_aromatic_ring close_aromatic_ring ring_built build_to_Nac build_to_Nd0 build_DB_to_Cs2 build_SB_to_Cs2 no_task close_aromatic_ring close_aromatic_ring close_aromatic_ring

>  <prot_clashes>  (60) 
2

>  <NBS phar>  (60) 
0.32

>  <NBS_non-phar>  (60) 
0.528406556447347

>  <NBS>  (60) 
0.8484065564473471

>  <source_stage>  (60) 
scored

>  <source_iter>  (60) 
12

>  <source_parent_mol>  (60) 
2

>  <source_scenario>  (60) 
1 2 3 1 0 0 0 1 9 3 2 2

>  <source_rank_in_scored_call>  (60) 
0

>  <source_current_task>  (60) 
close_aromatic_ring

>  <scenario>  (60) 
1 2 3 1 0 0 0 1 9 3 2

>  <protected_ring_attachments>  (60) 
3,1,0,2|1,0,2;4,5,0,2|5,0,2

>  <current_task>  (60) 
no_task

>  <rotatable_bond_torsions>  (60) 
1,0,2,7;0,2,7,9;2,7,9,10;7,9,10,12;9,10,12,13

$$$$

     RDKit          3D

 15 16  0  0  0  0  0  0  0  0999 V2000
  -27.8140   -7.3570  -31.2650 C   0  0  0  0  0  0  0  0  0  0  0  0
  -27.6850   -6.8260  -32.5150 N   0  0  0  0  0  0  0  0  0  0  0  0
  -27.3280   -8.7470  -30.9720 N   0  0  0  0  0  0  0  0  0  0  0  0
  -28.1640   -5.5710  -32.4980 C   0  0  0  0  0  0  0  0  0  0  0  0
  -28.5880   -5.3350  -31.2270 N   0  0  0  0  0  0  0  0  0  0  0  0
  -28.3770   -6.4100  -30.4890 N   0  0  0  0  0  0  0  0  0  0  0  0
  -28.4000   -6.6830  -29.0270 C   0  0  0  0  0  0  0  0  0  0  0  0
  -28.1550   -9.7460  -31.2050 C   0  0  0  0  0  0  0  0  0  0  0  0
  -29.2520   -9.8200  -31.7590 O   0  0  0  0  0  0  0  0  0  0  0  0
  -27.6880  -11.1520  -30.7200 C   0  0  0  0  0  0  0  0  0  0  0  0
  -28.6620  -12.3550  -30.7350 C   0  0  0  0  0  0  0  0  0  0  0  0
  -28.5160  -13.5000  -31.4880 C   0  0  0  0  0  0  0  0  0  0  0  0
  -29.8170  -12.5130  -29.9760 C   0  0  0  0  0  0  0  0  0  0  0  0
  -30.3350  -13.6950  -30.2630 O   0  0  0  0  0  0  0  0  0  0  0  0
  -29.5900  -14.3030  -31.1520 C   0  0  0  0  0  0  0  0  0  0  0  0
  1  2  2  0
  1  3  1  0
  1  6  1  0
  2  4  1  0
  3  8  1  0
  4  5  2  0
  5  6  1  0
  6  7  1  0
  8  9  2  0
  8 10  1  0
 10 11  1  0
 11 12  1  0
 11 13  2  0
 12 15  2  0
 13 14  1  0
 14 15  1  0
M  END
>  <name>  (61) 
Car Nac Nd0 Car Nac Nac Cs3 Cs2 .=O Cs3 Car Car Car O_a Car

>  <indices>  (61) 
[0, 1, 2]

>  <tasks>  (61) 
probe_placing close_aromatic_ring close_aromatic_ring close_aromatic_ring ring_built build_to_Nac build_to_Nd0 build_DB_to_Cs2 build_SB_to_Cs2 no_task close_aromatic_ring close_aromatic_ring close_aromatic_ring

>  <prot_clashes>  (61) 
7

>  <NBS phar>  (61) 
0.2

>  <NBS_non-phar>  (61) 
0.5349009195963542

>  <NBS>  (61) 
0.7349009195963543

>  <source_stage>  (61) 
scored

>  <source_iter>  (61) 
12

>  <source_parent_mol>  (61) 
0

>  <source_scenario>  (61) 
1 2 3 1 0 0 0 1 9 4 4 0

>  <source_rank_in_scored_call>  (61) 
0

>  <source_current_task>  (61) 
close_aromatic_ring

>  <scenario>  (61) 
1 2 3 1 0 0 0 1 9 4 4

>  <protected_ring_attachments>  (61) 
3,1,0,2|1,0,2;4,5,0,2|5,0,2

>  <current_task>  (61) 
no_task

>  <rotatable_bond_torsions>  (61) 
1,0,2,7;0,2,7,9;2,7,9,10;7,9,10,12

$$$$

     RDKit          3D

 15 16  0  0  0  0  0  0  0  0999 V2000
  -27.8160   -7.3770  -31.2590 C   0  0  0  0  0  0  0  0  0  0  0  0
  -27.6880   -6.8500  -32.5120 N   0  0  0  0  0  0  0  0  0  0  0  0
  -27.3300   -8.7660  -30.9630 N   0  0  0  0  0  0  0  0  0  0  0  0
  -28.1670   -5.5950  -32.4990 C   0  0  0  0  0  0  0  0  0  0  0  0
  -28.5880   -5.3550  -31.2280 N   0  0  0  0  0  0  0  0  0  0  0  0
  -28.3770   -6.4260  -30.4860 N   0  0  0  0  0  0  0  0  0  0  0  0
  -28.3980   -6.6940  -29.0240 C   0  0  0  0  0  0  0  0  0  0  0  0
  -28.1580   -9.7650  -31.1900 C   0  0  0  0  0  0  0  0  0  0  0  0
  -29.2560   -9.8410  -31.7420 O   0  0  0  0  0  0  0  0  0  0  0  0
  -27.6900  -11.1700  -30.7020 C   0  0  0  0  0  0  0  0  0  0  0  0
  -28.6750  -12.3980  -30.6960 C   0  0  0  0  0  0  0  0  0  0  0  0
  -28.5550  -13.5410  -31.4960 C   0  0  0  0  0  0  0  0  0  0  0  0
  -29.8220  -12.5460  -29.9400 C   0  0  0  0  0  0  0  0  0  0  0  0
  -29.6510  -14.3270  -31.1730 C   0  0  0  0  0  0  0  0  0  0  0  0
  -30.3420  -13.6890  -30.2650 O   0  0  0  0  0  0  0  0  0  0  0  0
  1  2  2  0
  1  3  1  0
  1  6  1  0
  2  4  1  0
  3  8  1  0
  4  5  2  0
  5  6  1  0
  6  7  1  0
  8  9  2  0
  8 10  1  0
 10 11  1  0
 11 12  1  0
 11 13  2  0
 12 14  2  0
 13 15  1  0
 14 15  1  0
M  END
>  <name>  (62) 
Car Nac Nd0 Car Nac Nac Cs3 Cs2 .=O Cs3 Car Car Car Car O_a

>  <indices>  (62) 
[0, 1, 2]

>  <tasks>  (62) 
probe_placing close_aromatic_ring close_aromatic_ring close_aromatic_ring ring_built build_to_Nac build_to_Nd0 build_DB_to_Cs2 build_SB_to_Cs2 no_task close_aromatic_ring close_aromatic_ring close_aromatic_ring

>  <prot_clashes>  (62) 
7

>  <NBS phar>  (62) 
0.2

>  <NBS_non-phar>  (62) 
0.5311883926391602

>  <NBS>  (62) 
0.7311883926391602

>  <source_stage>  (62) 
scored

>  <source_iter>  (62) 
12

>  <source_parent_mol>  (62) 
2

>  <source_scenario>  (62) 
1 2 3 1 0 0 0 1 9 4 4 2

>  <source_rank_in_scored_call>  (62) 
0

>  <source_current_task>  (62) 
close_aromatic_ring

>  <scenario>  (62) 
1 2 3 1 0 0 0 1 9 4 4

>  <protected_ring_attachments>  (62) 
3,1,0,2|1,0,2;4,5,0,2|5,0,2

>  <current_task>  (62) 
no_task

>  <rotatable_bond_torsions>  (62) 
1,0,2,7;0,2,7,9;2,7,9,10;7,9,10,11;9,10,11,13

$$$$

     RDKit          3D

 15 16  0  0  0  0  0  0  0  0999 V2000
  -27.9970   -7.8060  -31.3090 C   0  0  0  0  0  0  0  0  0  0  0  0
  -27.9540   -7.1650  -32.5130 N   0  0  0  0  0  0  0  0  0  0  0  0
  -27.8640   -9.3000  -31.2370 N   0  0  0  0  0  0  0  0  0  0  0  0
  -28.0630   -5.8420  -32.2960 C   0  0  0  0  0  0  0  0  0  0  0  0
  -28.1700   -5.6770  -30.9490 N   0  0  0  0  0  0  0  0  0  0  0  0
  -28.1320   -6.8590  -30.3600 N   0  0  0  0  0  0  0  0  0  0  0  0
  -27.9630   -7.3080  -28.9520 C   0  0  0  0  0  0  0  0  0  0  0  0
  -28.9600  -10.0180  -31.3710 C   0  0  0  0  0  0  0  0  0  0  0  0
  -30.1200   -9.7400  -31.6850 O   0  0  0  0  0  0  0  0  0  0  0  0
  -28.8120  -11.5630  -31.0530 C   0  0  0  0  0  0  0  0  0  0  0  0
  -27.5760  -12.1110  -31.2570 C   0  0  0  0  0  0  0  0  0  0  0  0
  -27.3250  -13.4460  -31.0140 C   0  0  0  0  0  0  0  0  0  0  0  0
  -28.3090  -14.2870  -30.5550 C   0  0  0  0  0  0  0  0  0  0  0  0
  -29.5810  -13.7420  -30.3420 C   0  0  0  0  0  0  0  0  0  0  0  0
  -29.8210  -12.3960  -30.5900 C   0  0  0  0  0  0  0  0  0  0  0  0
  1  2  2  0
  1  3  1  0
  1  6  1  0
  2  4  1  0
  3  8  1  0
  4  5  2  0
  5  6  1  0
  6  7  1  0
  8  9  2  0
  8 10  1  0
 10 11  2  0
 10 15  1  0
 11 12  1  0
 12 13  2  0
 13 14  1  0
 14 15  2  0
M  END
>  <name>  (63) 
Car Nac Nd0 Car Nac Nac Cs3 Cs2 .=O Car Car Car Car Car Car

>  <indices>  (63) 
[0, 1, 2]

>  <tasks>  (63) 
probe_placing close_aromatic_ring close_aromatic_ring close_aromatic_ring ring_built build_to_Nac build_to_Nd0 build_DB_to_Cs2 build_SB_to_Cs2 close_aromatic_ring close_aromatic_ring close_aromatic_ring close_aromatic_ring

>  <prot_clashes>  (63) 
6

>  <NBS phar>  (63) 
0.32

>  <NBS_non-phar>  (63) 
0.49045448303222655

>  <NBS>  (63) 
0.8104544830322266

>  <source_stage>  (63) 
scored

>  <source_iter>  (63) 
12

>  <source_parent_mol>  (63) 
3

>  <source_scenario>  (63) 
1 2 3 1 0 0 0 4 1 3 1 3

>  <source_rank_in_scored_call>  (63) 
0

>  <source_current_task>  (63) 
close_aromatic_ring

>  <scenario>  (63) 
1 2 3 1 0 0 0 4 1 3 1

>  <protected_ring_attachments>  (63) 
3,1,0,2|1,0,2;4,5,0,2|5,0,2

>  <current_task>  (63) 
no_task

>  <rotatable_bond_torsions>  (63) 
1,0,2,7;0,2,7,9;2,7,9,10;7,9,10,11;10,11,12,13

$$$$

     RDKit          3D

 15 16  0  0  0  0  0  0  0  0999 V2000
  -27.9850   -7.8380  -31.2870 C   0  0  0  0  0  0  0  0  0  0  0  0
  -28.1320   -7.2060  -32.4880 N   0  0  0  0  0  0  0  0  0  0  0  0
  -27.8810   -9.3350  -31.2230 N   0  0  0  0  0  0  0  0  0  0  0  0
  -28.1670   -5.8790  -32.2690 C   0  0  0  0  0  0  0  0  0  0  0  0
  -28.0380   -5.7030  -30.9260 N   0  0  0  0  0  0  0  0  0  0  0  0
  -27.9310   -6.8820  -30.3400 N   0  0  0  0  0  0  0  0  0  0  0  0
  -27.5360   -7.3270  -28.9760 C   0  0  0  0  0  0  0  0  0  0  0  0
  -29.0020  -10.0230  -31.1600 C   0  0  0  0  0  0  0  0  0  0  0  0
  -30.1900   -9.7150  -31.2750 O   0  0  0  0  0  0  0  0  0  0  0  0
  -28.8400  -11.6580  -31.0760 C   0  0  0  0  0  0  0  0  0  0  0  0
  -27.5920  -12.1600  -31.2940 C   0  0  0  0  0  0  0  0  0  0  0  0
  -27.3270  -13.4730  -30.9710 C   0  0  0  0  0  0  0  0  0  0  0  0
  -28.3250  -14.2850  -30.4270 C   0  0  0  0  0  0  0  0  0  0  0  0
  -29.5760  -13.7240  -30.2260 C   0  0  0  0  0  0  0  0  0  0  0  0
  -29.8710  -12.4140  -30.5400 C   0  0  0  0  0  0  0  0  0  0  0  0
  1  2  2  0
  1  3  1  0
  1  6  1  0
  2  4  1  0
  3  8  1  0
  4  5  2  0
  5  6  1  0
  6  7  1  0
  8  9  2  0
  8 10  1  0
 10 11  2  0
 10 15  1  0
 11 12  1  0
 12 13  2  0
 13 14  1  0
 14 15  2  0
M  END
>  <name>  (64) 
Car Nac Nd0 Car Nac Nac Cs3 Cs2 .=O Car Car Car Car Car Car

>  <indices>  (64) 
[0, 1, 2]

>  <tasks>  (64) 
probe_placing close_aromatic_ring close_aromatic_ring close_aromatic_ring ring_built build_to_Nac build_to_Nd0 build_DB_to_Cs2 build_SB_to_Cs2 close_aromatic_ring close_aromatic_ring close_aromatic_ring close_aromatic_ring

>  <prot_clashes>  (64) 
6

>  <NBS phar>  (64) 
0.3

>  <NBS_non-phar>  (64) 
0.4641066869099935

>  <NBS>  (64) 
0.7641066869099935

>  <source_stage>  (64) 
scored

>  <source_iter>  (64) 
12

>  <source_parent_mol>  (64) 
3

>  <source_scenario>  (64) 
1 2 3 1 0 0 0 4 1 3 1 3

>  <source_rank_in_scored_call>  (64) 
1

>  <source_current_task>  (64) 
close_aromatic_ring

>  <scenario>  (64) 
1 2 3 1 0 0 0 4 1 3 1

>  <protected_ring_attachments>  (64) 
3,1,0,2|1,0,2;4,5,0,2|5,0,2

>  <current_task>  (64) 
no_task

>  <rotatable_bond_torsions>  (64) 
1,0,2,7;0,2,7,9;2,7,9,10;7,9,10,11;10,11,12,13

$$$$

     RDKit          3D

 15 16  0  0  0  0  0  0  0  0999 V2000
  -28.0020   -7.8290  -31.3110 C   0  0  0  0  0  0  0  0  0  0  0  0
  -28.0630   -7.1860  -32.5130 N   0  0  0  0  0  0  0  0  0  0  0  0
  -27.9130   -9.3270  -31.2520 N   0  0  0  0  0  0  0  0  0  0  0  0
  -28.1030   -5.8610  -32.2870 C   0  0  0  0  0  0  0  0  0  0  0  0
  -28.0630   -5.6980  -30.9350 N   0  0  0  0  0  0  0  0  0  0  0  0
  -28.0040   -6.8810  -30.3530 N   0  0  0  0  0  0  0  0  0  0  0  0
  -27.7040   -7.3400  -28.9710 C   0  0  0  0  0  0  0  0  0  0  0  0
  -29.0410  -10.0070  -31.2710 C   0  0  0  0  0  0  0  0  0  0  0  0
  -30.2170   -9.6880  -31.4620 O   0  0  0  0  0  0  0  0  0  0  0  0
  -28.8880  -11.5230  -31.0080 C   0  0  0  0  0  0  0  0  0  0  0  0
  -27.6750  -12.1400  -31.3060 C   0  0  0  0  0  0  0  0  0  0  0  0
  -27.4890  -13.4880  -31.0820 C   0  0  0  0  0  0  0  0  0  0  0  0
  -29.9140  -12.2940  -30.4760 C   0  0  0  0  0  0  0  0  0  0  0  0
  -29.7100  -13.6400  -30.2580 C   0  0  0  0  0  0  0  0  0  0  0  0
  -28.5100  -14.2650  -30.5510 C   0  0  0  0  0  0  0  0  0  0  0  0
  1  2  2  0
  1  3  1  0
  1  6  1  0
  2  4  1  0
  3  8  1  0
  4  5  2  0
  5  6  1  0
  6  7  1  0
  8  9  2  0
  8 10  1  0
 10 11  2  0
 10 13  1  0
 11 12  1  0
 12 15  2  0
 13 14  2  0
 14 15  1  0
M  END
>  <name>  (65) 
Car Nac Nd0 Car Nac Nac Cs3 Cs2 .=O Car Car Car Car Car Car

>  <indices>  (65) 
[0, 1, 2]

>  <tasks>  (65) 
probe_placing close_aromatic_ring close_aromatic_ring close_aromatic_ring ring_built build_to_Nac build_to_Nd0 build_DB_to_Cs2 build_SB_to_Cs2 close_aromatic_ring close_aromatic_ring close_aromatic_ring close_aromatic_ring

>  <prot_clashes>  (65) 
5

>  <NBS phar>  (65) 
0.32

>  <NBS_non-phar>  (65) 
0.48667319615681964

>  <NBS>  (65) 
0.8066731961568196

>  <source_stage>  (65) 
scored

>  <source_iter>  (65) 
12

>  <source_parent_mol>  (65) 
2

>  <source_scenario>  (65) 
1 2 3 1 0 0 0 4 1 3 3 2

>  <source_rank_in_scored_call>  (65) 
0

>  <source_current_task>  (65) 
close_aromatic_ring

>  <scenario>  (65) 
1 2 3 1 0 0 0 4 1 3 3

>  <protected_ring_attachments>  (65) 
3,1,0,2|1,0,2;4,5,0,2|5,0,2

>  <current_task>  (65) 
no_task

>  <rotatable_bond_torsions>  (65) 
1,0,2,7;0,2,7,9;2,7,9,10;7,9,10,11

$$$$

     RDKit          3D

 15 16  0  0  0  0  0  0  0  0999 V2000
  -27.9140   -7.6450  -31.3090 C   0  0  0  0  0  0  0  0  0  0  0  0
  -27.9010   -7.0130  -32.5170 N   0  0  0  0  0  0  0  0  0  0  0  0
  -27.7860   -9.1400  -31.2290 N   0  0  0  0  0  0  0  0  0  0  0  0
  -27.9960   -5.6880  -32.3060 C   0  0  0  0  0  0  0  0  0  0  0  0
  -28.0630   -5.5140  -30.9570 N   0  0  0  0  0  0  0  0  0  0  0  0
  -28.0150   -6.6930  -30.3620 N   0  0  0  0  0  0  0  0  0  0  0  0
  -27.8110   -7.1320  -28.9570 C   0  0  0  0  0  0  0  0  0  0  0  0
  -28.8900   -9.8520  -31.3260 C   0  0  0  0  0  0  0  0  0  0  0  0
  -30.0560   -9.5690  -31.6100 O   0  0  0  0  0  0  0  0  0  0  0  0
  -28.6870  -11.3960  -31.0200 C   0  0  0  0  0  0  0  0  0  0  0  0
  -27.4730  -11.9690  -31.2530 C   0  0  0  0  0  0  0  0  0  0  0  0
  -29.7640  -12.1370  -30.5740 C   0  0  0  0  0  0  0  0  0  0  0  0
  -29.5820  -13.5070  -30.3620 C   0  0  0  0  0  0  0  0  0  0  0  0
  -28.3670  -14.1180  -30.5880 C   0  0  0  0  0  0  0  0  0  0  0  0
  -27.3130  -13.3230  -31.0380 C   0  0  0  0  0  0  0  0  0  0  0  0
  1  2  2  0
  1  3  1  0
  1  6  1  0
  2  4  1  0
  3  8  1  0
  4  5  2  0
  5  6  1  0
  6  7  1  0
  8  9  2  0
  8 10  1  0
 10 11  2  0
 10 12  1  0
 11 15  1  0
 12 13  2  0
 13 14  1  0
 14 15  2  0
M  END
>  <name>  (66) 
Car Nac Nd0 Car Nac Nac Cs3 Cs2 .=O Car Car Car Car Car Car

>  <indices>  (66) 
[0, 1, 2]

>  <tasks>  (66) 
probe_placing close_aromatic_ring close_aromatic_ring close_aromatic_ring ring_built build_to_Nac build_to_Nd0 build_DB_to_Cs2 build_SB_to_Cs2 close_aromatic_ring close_aromatic_ring close_aromatic_ring close_aromatic_ring

>  <prot_clashes>  (66) 
5

>  <NBS phar>  (66) 
0.32

>  <NBS_non-phar>  (66) 
0.49351940155029295

>  <NBS>  (66) 
0.8135194015502929

>  <source_stage>  (66) 
scored

>  <source_iter>  (66) 
12

>  <source_parent_mol>  (66) 
4

>  <source_scenario>  (66) 
1 2 3 1 0 0 0 4 1 4 1 4

>  <source_rank_in_scored_call>  (66) 
0

>  <source_current_task>  (66) 
close_aromatic_ring

>  <scenario>  (66) 
1 2 3 1 0 0 0 4 1 4 1

>  <protected_ring_attachments>  (66) 
3,1,0,2|1,0,2;4,5,0,2|5,0,2

>  <current_task>  (66) 
no_task

>  <rotatable_bond_torsions>  (66) 
1,0,2,7;0,2,7,9;2,7,9,11;9,11,12,13

$$$$

     RDKit          3D

 16 17  0  0  0  0  0  0  0  0999 V2000
  -27.9840   -7.4530  -31.2680 C   0  0  0  0  0  0  0  0  0  0  0  0
  -27.6880   -6.9830  -32.5130 N   0  0  0  0  0  0  0  0  0  0  0  0
  -27.9680   -8.9280  -30.9890 N   0  0  0  0  0  0  0  0  0  0  0  0
  -27.7400   -5.6390  -32.4880 C   0  0  0  0  0  0  0  0  0  0  0  0
  -28.0700   -5.2910  -31.2130 N   0  0  0  0  0  0  0  0  0  0  0  0
  -28.2150   -6.3840  -30.4840 N   0  0  0  0  0  0  0  0  0  0  0  0
  -28.3290   -6.6460  -29.0250 C   0  0  0  0  0  0  0  0  0  0  0  0
  -29.0700   -9.6090  -31.2270 C   0  0  0  0  0  0  0  0  0  0  0  0
  -30.1320   -9.3240  -31.7800 O   0  0  0  0  0  0  0  0  0  0  0  0
  -29.0030  -11.1090  -30.6670 C   0  0  0  0  0  0  0  0  0  0  0  0
  -28.0690  -11.9840  -31.1820 C   0  0  0  0  0  0  0  0  0  0  0  0
  -29.9010  -11.5620  -29.6950 C   0  0  0  0  0  0  0  0  0  0  0  0
  -29.8720  -12.8650  -29.2400 C   0  0  0  0  0  0  0  0  0  0  0  0
  -28.9180  -13.6970  -29.7910 C   0  0  0  0  0  0  0  0  0  0  0  0
  -28.0160  -13.3110  -30.7410 C   0  0  0  0  0  0  0  0  0  0  0  0
  -27.1820  -11.5470  -32.1370 O   0  0  0  0  0  0  0  0  0  0  0  0
  1  2  2  0
  1  3  1  0
  1  6  1  0
  2  4  1  0
  3  8  1  0
  4  5  2  0
  5  6  1  0
  6  7  1  0
  8  9  2  0
  8 10  1  0
 10 11  2  0
 10 12  1  0
 11 16  1  0
 11 15  1  0
 12 13  2  0
 13 14  1  0
 14 15  2  0
M  CHG  1  16  -1
M  END
>  <name>  (67) 
Car Nac Nd0 Car Nac Nac Cs3 Cs2 .=O Car Car Car Car Car Car .=O

>  <indices>  (67) 
[0, 1, 2]

>  <tasks>  (67) 
probe_placing close_aromatic_ring close_aromatic_ring close_aromatic_ring ring_built build_to_Nac build_to_Nd0 build_DB_to_Cs2 build_SB_to_Cs2 close_aromatic_ring close_aromatic_ring close_aromatic_ring close_aromatic_ring close_aromatic_ring

>  <prot_clashes>  (67) 
6

>  <NBS phar>  (67) 
0.32

>  <NBS_non-phar>  (67) 
0.5011410713195801

>  <NBS>  (67) 
0.8211410713195801

>  <source_stage>  (67) 
scored

>  <source_iter>  (67) 
13

>  <source_parent_mol>  (67) 
0

>  <source_scenario>  (67) 
1 2 3 1 0 0 0 4 4 2 3 3 0

>  <source_rank_in_scored_call>  (67) 
5

>  <source_current_task>  (67) 
build_orthosubstituent_to_rotated_amide

>  <scenario>  (67) 
1 2 3 1 0 0 0 4 4 2 3 3

>  <protected_ring_attachments>  (67) 
3,1,0,2|1,0,2;4,5,0,2|5,0,2

>  <current_task>  (67) 
no_task

>  <rotatable_bond_torsions>  (67) 
1,0,2,7;0,2,7,9;2,7,9,10

>  <flag ortho>  (67) 


$$$$

     RDKit          3D

 16 17  0  0  0  0  0  0  0  0999 V2000
  -27.9020   -7.4760  -31.3090 C   0  0  0  0  0  0  0  0  0  0  0  0
  -27.6930   -6.8640  -32.5090 N   0  0  0  0  0  0  0  0  0  0  0  0
  -27.7780   -8.9670  -31.1840 N   0  0  0  0  0  0  0  0  0  0  0  0
  -27.8310   -5.5370  -32.3430 C   0  0  0  0  0  0  0  0  0  0  0  0
  -28.1270   -5.3420  -31.0280 N   0  0  0  0  0  0  0  0  0  0  0  0
  -28.1690   -6.5100  -30.4110 N   0  0  0  0  0  0  0  0  0  0  0  0
  -28.2020   -6.9250  -28.9840 C   0  0  0  0  0  0  0  0  0  0  0  0
  -28.8430   -9.6950  -31.4510 C   0  0  0  0  0  0  0  0  0  0  0  0
  -29.9440   -9.4310  -31.9320 O   0  0  0  0  0  0  0  0  0  0  0  0
  -28.6530  -11.2360  -31.0520 C   0  0  0  0  0  0  0  0  0  0  0  0
  -27.6880  -11.9880  -31.6870 C   0  0  0  0  0  0  0  0  0  0  0  0
  -29.4760  -11.8460  -30.0990 C   0  0  0  0  0  0  0  0  0  0  0  0
  -29.3430  -13.1830  -29.7820 C   0  0  0  0  0  0  0  0  0  0  0  0
  -28.3620  -13.8860  -30.4500 C   0  0  0  0  0  0  0  0  0  0  0  0
  -27.5280  -13.3450  -31.3880 C   0  0  0  0  0  0  0  0  0  0  0  0
  -30.5330  -11.0250  -29.4020 C   0  0  0  0  0  0  0  0  0  0  0  0
  1  2  2  0
  1  3  1  0
  1  6  1  0
  2  4  1  0
  3  8  1  0
  4  5  2  0
  5  6  1  0
  6  7  1  0
  8  9  2  0
  8 10  1  0
 10 11  2  0
 10 12  1  0
 11 15  1  0
 12 13  2  0
 12 16  1  0
 13 14  1  0
 14 15  2  0
M  END
>  <name>  (68) 
Car Nac Nd0 Car Nac Nac Cs3 Cs2 .=O Car Car Car Car Car Car Cs3

>  <indices>  (68) 
[0, 1, 2]

>  <tasks>  (68) 
probe_placing close_aromatic_ring close_aromatic_ring close_aromatic_ring ring_built build_to_Nac build_to_Nd0 build_DB_to_Cs2 build_SB_to_Cs2 close_aromatic_ring close_aromatic_ring close_aromatic_ring close_aromatic_ring close_aromatic_ring

>  <prot_clashes>  (68) 
3

>  <NBS phar>  (68) 
0.24000000000000005

>  <NBS_non-phar>  (68) 
0.5694342851638794

>  <NBS>  (68) 
0.8094342851638794

>  <source_stage>  (68) 
scored

>  <source_iter>  (68) 
13

>  <source_parent_mol>  (68) 
0

>  <source_scenario>  (68) 
1 2 3 1 0 0 0 4 4 2 3 3 0

>  <source_rank_in_scored_call>  (68) 
9

>  <source_current_task>  (68) 
build_orthosubstituent_to_rotated_amide

>  <scenario>  (68) 
1 2 3 1 0 0 0 4 4 2 3 3

>  <protected_ring_attachments>  (68) 
3,1,0,2|1,0,2;4,5,0,2|5,0,2

>  <current_task>  (68) 
no_task

>  <rotatable_bond_torsions>  (68) 
1,0,2,7;0,2,7,9;2,7,9,10

>  <flag ortho>  (68) 


$$$$

     RDKit          3D

 16 17  0  0  0  0  0  0  0  0999 V2000
  -27.9230   -7.4610  -31.3020 C   0  0  0  0  0  0  0  0  0  0  0  0
  -27.6850   -6.8460  -32.4950 N   0  0  0  0  0  0  0  0  0  0  0  0
  -27.7980   -8.9520  -31.1770 N   0  0  0  0  0  0  0  0  0  0  0  0
  -27.8310   -5.5190  -32.3300 C   0  0  0  0  0  0  0  0  0  0  0  0
  -28.1600   -5.3280  -31.0220 N   0  0  0  0  0  0  0  0  0  0  0  0
  -28.2140   -6.4970  -30.4090 N   0  0  0  0  0  0  0  0  0  0  0  0
  -28.2810   -6.9150  -28.9840 C   0  0  0  0  0  0  0  0  0  0  0  0
  -28.8540   -9.6820  -31.4720 C   0  0  0  0  0  0  0  0  0  0  0  0
  -29.9440   -9.4190  -31.9790 O   0  0  0  0  0  0  0  0  0  0  0  0
  -28.6710  -11.2230  -31.0710 C   0  0  0  0  0  0  0  0  0  0  0  0
  -27.6880  -11.9710  -31.6840 C   0  0  0  0  0  0  0  0  0  0  0  0
  -29.5160  -11.8370  -30.1400 C   0  0  0  0  0  0  0  0  0  0  0  0
  -29.3870  -13.1740  -29.8230 C   0  0  0  0  0  0  0  0  0  0  0  0
  -28.3880  -13.8740  -30.4680 C   0  0  0  0  0  0  0  0  0  0  0  0
  -27.5330  -13.3290  -31.3840 C   0  0  0  0  0  0  0  0  0  0  0  0
  -30.4960  -11.0920  -29.5270 O   0  0  0  0  0  0  0  0  0  0  0  0
  1  2  2  0
  1  3  1  0
  1  6  1  0
  2  4  1  0
  3  8  1  0
  4  5  2  0
  5  6  1  0
  6  7  1  0
  8  9  2  0
  8 10  1  0
 10 11  2  0
 10 12  1  0
 11 15  1  0
 12 13  2  0
 12 16  1  0
 13 14  1  0
 14 15  2  0
M  CHG  1  16  -1
M  END
>  <name>  (69) 
Car Nac Nd0 Car Nac Nac Cs3 Cs2 .=O Car Car Car Car Car Car .=O

>  <indices>  (69) 
[0, 1, 2]

>  <tasks>  (69) 
probe_placing close_aromatic_ring close_aromatic_ring close_aromatic_ring ring_built build_to_Nac build_to_Nd0 build_DB_to_Cs2 build_SB_to_Cs2 close_aromatic_ring close_aromatic_ring close_aromatic_ring close_aromatic_ring close_aromatic_ring

>  <prot_clashes>  (69) 
2

>  <NBS phar>  (69) 
0.24000000000000005

>  <NBS_non-phar>  (69) 
0.5400475859642029

>  <NBS>  (69) 
0.7800475859642029

>  <source_stage>  (69) 
scored

>  <source_iter>  (69) 
13

>  <source_parent_mol>  (69) 
0

>  <source_scenario>  (69) 
1 2 3 1 0 0 0 4 4 2 3 3 0

>  <source_rank_in_scored_call>  (69) 
14

>  <source_current_task>  (69) 
build_orthosubstituent_to_rotated_amide

>  <scenario>  (69) 
1 2 3 1 0 0 0 4 4 2 3 3

>  <protected_ring_attachments>  (69) 
3,1,0,2|1,0,2;4,5,0,2|5,0,2

>  <current_task>  (69) 
no_task

>  <rotatable_bond_torsions>  (69) 
1,0,2,7;0,2,7,9;2,7,9,10

>  <flag ortho>  (69) 


$$$$

     RDKit          3D

 16 17  0  0  0  0  0  0  0  0999 V2000
  -28.1220   -7.4570  -31.1830 C   0  0  0  0  0  0  0  0  0  0  0  0
  -28.0700   -7.0380  -32.4790 N   0  0  0  0  0  0  0  0  0  0  0  0
  -28.0410   -8.9200  -30.8530 N   0  0  0  0  0  0  0  0  0  0  0  0
  -28.1280   -5.6940  -32.4980 C   0  0  0  0  0  0  0  0  0  0  0  0
  -28.2160   -5.2950  -31.1980 N   0  0  0  0  0  0  0  0  0  0  0  0
  -28.2110   -6.3570  -30.4130 N   0  0  0  0  0  0  0  0  0  0  0  0
  -28.0460   -6.5600  -28.9490 C   0  0  0  0  0  0  0  0  0  0  0  0
  -29.1620   -9.6110  -30.8530 C   0  0  0  0  0  0  0  0  0  0  0  0
  -30.3110   -9.3500  -31.2060 O   0  0  0  0  0  0  0  0  0  0  0  0
  -28.9770  -11.0870  -30.2560 C   0  0  0  0  0  0  0  0  0  0  0  0
  -28.1490  -11.9810  -30.9020 C   0  0  0  0  0  0  0  0  0  0  0  0
  -29.6720  -11.5020  -29.1150 C   0  0  0  0  0  0  0  0  0  0  0  0
  -29.5470  -12.7850  -28.6220 C   0  0  0  0  0  0  0  0  0  0  0  0
  -28.7060  -13.6370  -29.3090 C   0  0  0  0  0  0  0  0  0  0  0  0
  -28.0020  -13.2890  -30.4270 C   0  0  0  0  0  0  0  0  0  0  0  0
  -27.3940  -11.5440  -32.1330 C   0  0  0  0  0  0  0  0  0  0  0  0
  1  2  2  0
  1  3  1  0
  1  6  1  0
  2  4  1  0
  3  8  1  0
  4  5  2  0
  5  6  1  0
  6  7  1  0
  8  9  2  0
  8 10  1  0
 10 11  2  0
 10 12  1  0
 11 16  1  0
 11 15  1  0
 12 13  2  0
 13 14  1  0
 14 15  2  0
M  END
>  <name>  (70) 
Car Nac Nd0 Car Nac Nac Cs3 Cs2 .=O Car Car Car Car Car Car Cs3

>  <indices>  (70) 
[0, 1, 2]

>  <tasks>  (70) 
probe_placing close_aromatic_ring close_aromatic_ring close_aromatic_ring ring_built build_to_Nac build_to_Nd0 build_DB_to_Cs2 build_SB_to_Cs2 close_aromatic_ring close_aromatic_ring close_aromatic_ring close_aromatic_ring close_aromatic_ring

>  <prot_clashes>  (70) 
7

>  <NBS phar>  (70) 
0.24000000000000005

>  <NBS_non-phar>  (70) 
0.4618385136127472

>  <NBS>  (70) 
0.7018385136127472

>  <source_stage>  (70) 
scored

>  <source_iter>  (70) 
13

>  <source_parent_mol>  (70) 
0

>  <source_scenario>  (70) 
1 2 3 1 0 0 0 4 4 2 3 3 0

>  <source_rank_in_scored_call>  (70) 
23

>  <source_current_task>  (70) 
build_orthosubstituent_to_rotated_amide

>  <scenario>  (70) 
1 2 3 1 0 0 0 4 4 2 3 3

>  <protected_ring_attachments>  (70) 
3,1,0,2|1,0,2;4,5,0,2|5,0,2

>  <current_task>  (70) 
no_task

>  <rotatable_bond_torsions>  (70) 
1,0,2,7;0,2,7,9;2,7,9,10

>  <flag ortho>  (70) 


$$$$

     RDKit          3D

 16 17  0  0  0  0  0  0  0  0999 V2000
  -27.8860   -7.3040  -31.2510 C   0  0  0  0  0  0  0  0  0  0  0  0
  -27.7590   -6.8060  -32.5120 N   0  0  0  0  0  0  0  0  0  0  0  0
  -27.6320   -8.7590  -30.9770 N   0  0  0  0  0  0  0  0  0  0  0  0
  -28.0060   -5.4840  -32.4750 C   0  0  0  0  0  0  0  0  0  0  0  0
  -28.2830   -5.1770  -31.1770 N   0  0  0  0  0  0  0  0  0  0  0  0
  -28.2100   -6.2750  -30.4460 N   0  0  0  0  0  0  0  0  0  0  0  0
  -28.1680   -6.5390  -28.9850 C   0  0  0  0  0  0  0  0  0  0  0  0
  -28.6400   -9.5970  -31.1340 C   0  0  0  0  0  0  0  0  0  0  0  0
  -29.7720   -9.4730  -31.6000 O   0  0  0  0  0  0  0  0  0  0  0  0
  -28.4010  -11.1090  -30.5960 C   0  0  0  0  0  0  0  0  0  0  0  0
  -28.0930  -12.0440  -31.5580 C   0  0  0  0  0  0  0  0  0  0  0  0
  -27.8090  -13.3430  -31.1440 C   0  0  0  0  0  0  0  0  0  0  0  0
  -27.8320  -13.6970  -29.8120 C   0  0  0  0  0  0  0  0  0  0  0  0
  -28.1490  -12.7200  -28.8900 C   0  0  0  0  0  0  0  0  0  0  0  0
  -28.4390  -11.4160  -29.2380 C   0  0  0  0  0  0  0  0  0  0  0  0
  -28.0660  -11.7040  -32.8910 O   0  0  0  0  0  0  0  0  0  0  0  0
  1  2  2  0
  1  3  1  0
  1  6  1  0
  2  4  1  0
  3  8  1  0
  4  5  2  0
  5  6  1  0
  6  7  1  0
  8  9  2  0
  8 10  1  0
 10 11  2  0
 10 15  1  0
 11 16  1  0
 11 12  1  0
 12 13  2  0
 13 14  1  0
 14 15  2  0
M  CHG  1  16  -1
M  END
>  <name>  (71) 
Car Nac Nd0 Car Nac Nac Cs3 Cs2 .=O Car Car Car Car Car Car .=O

>  <indices>  (71) 
[0, 1, 2]

>  <tasks>  (71) 
probe_placing close_aromatic_ring close_aromatic_ring close_aromatic_ring ring_built build_to_Nac build_to_Nd0 build_DB_to_Cs2 build_SB_to_Cs2 close_aromatic_ring close_aromatic_ring close_aromatic_ring close_aromatic_ring close_aromatic_ring

>  <prot_clashes>  (71) 
2

>  <NBS phar>  (71) 
0.32

>  <NBS_non-phar>  (71) 
0.5471010208129883

>  <NBS>  (71) 
0.8671010208129883

>  <source_stage>  (71) 
scored

>  <source_iter>  (71) 
13

>  <source_parent_mol>  (71) 
0

>  <source_scenario>  (71) 
1 2 3 1 0 0 0 4 5 3 2 0 0

>  <source_rank_in_scored_call>  (71) 
0

>  <source_current_task>  (71) 
build_orthosubstituent_to_rotated_amide

>  <scenario>  (71) 
1 2 3 1 0 0 0 4 5 3 2 0

>  <protected_ring_attachments>  (71) 
3,1,0,2|1,0,2;4,5,0,2|5,0,2

>  <current_task>  (71) 
no_task

>  <rotatable_bond_torsions>  (71) 
1,0,2,7;0,2,7,9;2,7,9,10

>  <flag ortho>  (71) 


$$$$

     RDKit          3D

 16 17  0  0  0  0  0  0  0  0999 V2000
  -27.8960   -7.3330  -31.2770 C   0  0  0  0  0  0  0  0  0  0  0  0
  -27.6880   -6.7980  -32.5130 N   0  0  0  0  0  0  0  0  0  0  0  0
  -27.6310   -8.7890  -31.0220 N   0  0  0  0  0  0  0  0  0  0  0  0
  -27.9680   -5.4830  -32.4610 C   0  0  0  0  0  0  0  0  0  0  0  0
  -28.3470   -5.2170  -31.1800 N   0  0  0  0  0  0  0  0  0  0  0  0
  -28.3030   -6.3320  -30.4730 N   0  0  0  0  0  0  0  0  0  0  0  0
  -28.3630   -6.6350  -29.0200 C   0  0  0  0  0  0  0  0  0  0  0  0
  -28.6050   -9.6430  -31.2750 C   0  0  0  0  0  0  0  0  0  0  0  0
  -29.7020   -9.5300  -31.8210 O   0  0  0  0  0  0  0  0  0  0  0  0
  -28.3710  -11.1640  -30.7590 C   0  0  0  0  0  0  0  0  0  0  0  0
  -27.9710  -12.0650  -31.7190 C   0  0  0  0  0  0  0  0  0  0  0  0
  -27.6880  -13.3690  -31.3180 C   0  0  0  0  0  0  0  0  0  0  0  0
  -27.8020  -13.7590  -30.0000 C   0  0  0  0  0  0  0  0  0  0  0  0
  -28.2080  -12.8140  -29.0810 C   0  0  0  0  0  0  0  0  0  0  0  0
  -28.5020  -11.5080  -29.4160 C   0  0  0  0  0  0  0  0  0  0  0  0
  -28.9430  -10.5030  -28.3800 C   0  0  0  0  0  0  0  0  0  0  0  0
  1  2  2  0
  1  3  1  0
  1  6  1  0
  2  4  1  0
  3  8  1  0
  4  5  2  0
  5  6  1  0
  6  7  1  0
  8  9  2  0
  8 10  1  0
 10 11  2  0
 10 15  1  0
 11 12  1  0
 12 13  2  0
 13 14  1  0
 14 15  2  0
 15 16  1  0
M  END
>  <name>  (72) 
Car Nac Nd0 Car Nac Nac Cs3 Cs2 .=O Car Car Car Car Car Car Cs3

>  <indices>  (72) 
[0, 1, 2]

>  <tasks>  (72) 
probe_placing close_aromatic_ring close_aromatic_ring close_aromatic_ring ring_built build_to_Nac build_to_Nd0 build_DB_to_Cs2 build_SB_to_Cs2 close_aromatic_ring close_aromatic_ring close_aromatic_ring close_aromatic_ring close_aromatic_ring

>  <prot_clashes>  (72) 
3

>  <NBS phar>  (72) 
0.24

>  <NBS_non-phar>  (72) 
0.6125701665878296

>  <NBS>  (72) 
0.8525701665878296

>  <source_stage>  (72) 
scored

>  <source_iter>  (72) 
13

>  <source_parent_mol>  (72) 
0

>  <source_scenario>  (72) 
1 2 3 1 0 0 0 4 5 3 2 0 0

>  <source_rank_in_scored_call>  (72) 
7

>  <source_current_task>  (72) 
build_orthosubstituent_to_rotated_amide

>  <scenario>  (72) 
1 2 3 1 0 0 0 4 5 3 2 0

>  <protected_ring_attachments>  (72) 
3,1,0,2|1,0,2;4,5,0,2|5,0,2

>  <current_task>  (72) 
no_task

>  <rotatable_bond_torsions>  (72) 
1,0,2,7;0,2,7,9;2,7,9,10

>  <flag ortho>  (72) 


$$$$

     RDKit          3D

 16 17  0  0  0  0  0  0  0  0999 V2000
  -27.8920   -7.3410  -31.2810 C   0  0  0  0  0  0  0  0  0  0  0  0
  -27.6880   -6.7970  -32.5130 N   0  0  0  0  0  0  0  0  0  0  0  0
  -27.6270   -8.7990  -31.0380 N   0  0  0  0  0  0  0  0  0  0  0  0
  -27.9670   -5.4820  -32.4500 C   0  0  0  0  0  0  0  0  0  0  0  0
  -28.3410   -5.2250  -31.1660 N   0  0  0  0  0  0  0  0  0  0  0  0
  -28.2960   -6.3460  -30.4670 N   0  0  0  0  0  0  0  0  0  0  0  0
  -28.3510   -6.6600  -29.0170 C   0  0  0  0  0  0  0  0  0  0  0  0
  -28.6020   -9.6500  -31.2940 C   0  0  0  0  0  0  0  0  0  0  0  0
  -29.7010   -9.5330  -31.8350 O   0  0  0  0  0  0  0  0  0  0  0  0
  -28.3680  -11.1760  -30.7900 C   0  0  0  0  0  0  0  0  0  0  0  0
  -27.9720  -12.0700  -31.7590 C   0  0  0  0  0  0  0  0  0  0  0  0
  -27.6890  -13.3770  -31.3690 C   0  0  0  0  0  0  0  0  0  0  0  0
  -27.7980  -13.7770  -30.0540 C   0  0  0  0  0  0  0  0  0  0  0  0
  -28.2000  -12.8390  -29.1250 C   0  0  0  0  0  0  0  0  0  0  0  0
  -28.4940  -11.5300  -29.4500 C   0  0  0  0  0  0  0  0  0  0  0  0
  -28.8920  -10.6210  -28.4970 O   0  0  0  0  0  0  0  0  0  0  0  0
  1  2  2  0
  1  3  1  0
  1  6  1  0
  2  4  1  0
  3  8  1  0
  4  5  2  0
  5  6  1  0
  6  7  1  0
  8  9  2  0
  8 10  1  0
 10 11  2  0
 10 15  1  0
 11 12  1  0
 12 13  2  0
 13 14  1  0
 14 15  2  0
 15 16  1  0
M  CHG  1  16  -1
M  END
>  <name>  (73) 
Car Nac Nd0 Car Nac Nac Cs3 Cs2 .=O Car Car Car Car Car Car .=O

>  <indices>  (73) 
[0, 1, 2]

>  <tasks>  (73) 
probe_placing close_aromatic_ring close_aromatic_ring close_aromatic_ring ring_built build_to_Nac build_to_Nd0 build_DB_to_Cs2 build_SB_to_Cs2 close_aromatic_ring close_aromatic_ring close_aromatic_ring close_aromatic_ring close_aromatic_ring

>  <prot_clashes>  (73) 
3

>  <NBS phar>  (73) 
0.24

>  <NBS_non-phar>  (73) 
0.5761964321136475

>  <NBS>  (73) 
0.8161964321136475

>  <source_stage>  (73) 
scored

>  <source_iter>  (73) 
13

>  <source_parent_mol>  (73) 
0

>  <source_scenario>  (73) 
1 2 3 1 0 0 0 4 5 3 2 0 0

>  <source_rank_in_scored_call>  (73) 
19

>  <source_current_task>  (73) 
build_orthosubstituent_to_rotated_amide

>  <scenario>  (73) 
1 2 3 1 0 0 0 4 5 3 2 0

>  <protected_ring_attachments>  (73) 
3,1,0,2|1,0,2;4,5,0,2|5,0,2

>  <current_task>  (73) 
no_task

>  <rotatable_bond_torsions>  (73) 
1,0,2,7;0,2,7,9;2,7,9,10

>  <flag ortho>  (73) 


$$$$

     RDKit          3D

 16 17  0  0  0  0  0  0  0  0999 V2000
  -27.8790   -7.3360  -31.1200 C   0  0  0  0  0  0  0  0  0  0  0  0
  -27.7790   -6.9620  -32.4260 N   0  0  0  0  0  0  0  0  0  0  0  0
  -27.6120   -8.7570  -30.7110 N   0  0  0  0  0  0  0  0  0  0  0  0
  -28.0330   -5.6430  -32.5120 C   0  0  0  0  0  0  0  0  0  0  0  0
  -28.2870   -5.2130  -31.2450 N   0  0  0  0  0  0  0  0  0  0  0  0
  -28.1940   -6.2350  -30.4120 N   0  0  0  0  0  0  0  0  0  0  0  0
  -28.1230   -6.3560  -28.9330 C   0  0  0  0  0  0  0  0  0  0  0  0
  -28.6180   -9.6090  -30.7670 C   0  0  0  0  0  0  0  0  0  0  0  0
  -29.7600   -9.5350  -31.2210 O   0  0  0  0  0  0  0  0  0  0  0  0
  -28.3600  -11.0620  -30.0900 C   0  0  0  0  0  0  0  0  0  0  0  0
  -28.0650  -12.0840  -30.9640 C   0  0  0  0  0  0  0  0  0  0  0  0
  -27.7660  -13.3350  -30.4320 C   0  0  0  0  0  0  0  0  0  0  0  0
  -27.7620  -13.5600  -29.0710 C   0  0  0  0  0  0  0  0  0  0  0  0
  -28.0670  -12.4990  -28.2420 C   0  0  0  0  0  0  0  0  0  0  0  0
  -28.3710  -11.2360  -28.7090 C   0  0  0  0  0  0  0  0  0  0  0  0
  -28.0660  -11.8550  -32.4550 C   0  0  0  0  0  0  0  0  0  0  0  0
  1  2  2  0
  1  3  1  0
  1  6  1  0
  2  4  1  0
  3  8  1  0
  4  5  2  0
  5  6  1  0
  6  7  1  0
  8  9  2  0
  8 10  1  0
 10 11  2  0
 10 15  1  0
 11 16  1  0
 11 12  1  0
 12 13  2  0
 13 14  1  0
 14 15  2  0
M  END
>  <name>  (74) 
Car Nac Nd0 Car Nac Nac Cs3 Cs2 .=O Car Car Car Car Car Car Cs3

>  <indices>  (74) 
[0, 1, 2]

>  <tasks>  (74) 
probe_placing close_aromatic_ring close_aromatic_ring close_aromatic_ring ring_built build_to_Nac build_to_Nd0 build_DB_to_Cs2 build_SB_to_Cs2 close_aromatic_ring close_aromatic_ring close_aromatic_ring close_aromatic_ring close_aromatic_ring

>  <prot_clashes>  (74) 
2

>  <NBS phar>  (74) 
0.22000000000000003

>  <NBS_non-phar>  (74) 
0.5349274277687073

>  <NBS>  (74) 
0.7549274277687072

>  <source_stage>  (74) 
scored

>  <source_iter>  (74) 
13

>  <source_parent_mol>  (74) 
0

>  <source_scenario>  (74) 
1 2 3 1 0 0 0 4 5 3 2 0 0

>  <source_rank_in_scored_call>  (74) 
23

>  <source_current_task>  (74) 
build_orthosubstituent_to_rotated_amide

>  <scenario>  (74) 
1 2 3 1 0 0 0 4 5 3 2 0

>  <protected_ring_attachments>  (74) 
3,1,0,2|1,0,2;4,5,0,2|5,0,2

>  <current_task>  (74) 
no_task

>  <rotatable_bond_torsions>  (74) 
1,0,2,7;0,2,7,9;2,7,9,10

>  <flag ortho>  (74) 


$$$$

     RDKit          3D

 15 16  0  0  0  0  0  0  0  0999 V2000
  -27.9110   -7.0910  -30.9220 C   0  0  0  0  0  0  0  0  0  0  0  0
  -27.3830   -6.7650  -32.1360 N   0  0  0  0  0  0  0  0  0  0  0  0
  -27.7000   -8.4610  -30.3410 N   0  0  0  0  0  0  0  0  0  0  0  0
  -27.6860   -5.4830  -32.4040 C   0  0  0  0  0  0  0  0  0  0  0  0
  -28.4050   -5.0250  -31.3400 N   0  0  0  0  0  0  0  0  0  0  0  0
  -28.5370   -5.9950  -30.4540 N   0  0  0  0  0  0  0  0  0  0  0  0
  -28.9870   -6.0460  -29.0380 C   0  0  0  0  0  0  0  0  0  0  0  0
  -28.5540   -9.4060  -30.6810 C   0  0  0  0  0  0  0  0  0  0  0  0
  -29.4630   -9.4650  -31.5100 O   0  0  0  0  0  0  0  0  0  0  0  0
  -28.4380  -10.8020  -29.9190 C   0  0  0  0  0  0  0  0  0  0  0  0
  -28.9560  -11.9790  -30.4090 C   0  0  0  0  0  0  0  0  0  0  0  0
  -27.8160  -10.8300  -28.6660 C   0  0  0  0  0  0  0  0  0  0  0  0
  -27.7510  -12.0330  -27.9820 C   0  0  0  0  0  0  0  0  0  0  0  0
  -28.8850  -13.1650  -29.7200 C   0  0  0  0  0  0  0  0  0  0  0  0
  -28.2700  -13.2080  -28.4740 C   0  0  0  0  0  0  0  0  0  0  0  0
  1  2  2  0
  1  6  1  0
  1  3  1  0
  2  4  1  0
  3  8  1  0
  4  5  2  0
  5  6  1  0
  6  7  1  0
  8  9  2  0
  8 10  1  0
 10 11  2  0
 10 12  1  0
 11 14  1  0
 12 13  2  0
 13 15  1  0
 14 15  2  0
M  END
>  <name>  (75) 
Car Nac Nd0 Car Nac Nac Cs3 Cs2 .=O Car Car Car Car Car Car

>  <indices>  (75) 
[0, 1, 2]

>  <tasks>  (75) 
probe_placing close_aromatic_ring close_aromatic_ring close_aromatic_ring ring_built build_to_Nac build_to_Nd0 build_DB_to_Cs2 build_SB_to_Cs2 close_aromatic_ring close_aromatic_ring close_aromatic_ring close_aromatic_ring

>  <prot_clashes>  (75) 
2

>  <NBS phar>  (75) 
0.2

>  <NBS_non-phar>  (75) 
0.5851896286010743

>  <NBS>  (75) 
0.7851896286010742

>  <source_stage>  (75) 
scored

>  <source_iter>  (75) 
12

>  <source_parent_mol>  (75) 
2

>  <source_scenario>  (75) 
1 2 3 1 0 0 0 4 6 2 1 2

>  <source_rank_in_scored_call>  (75) 
0

>  <source_current_task>  (75) 
close_aromatic_ring

>  <scenario>  (75) 
1 2 3 1 0 0 0 4 6 2 1

>  <protected_ring_attachments>  (75) 
3,1,0,2|1,0,2;4,5,0,2|5,0,2

>  <current_task>  (75) 
no_task

>  <rotatable_bond_torsions>  (75) 
1,0,2,7;0,2,7,9;2,7,9,10;7,9,10,13

$$$$

     RDKit          3D

 15 16  0  0  0  0  0  0  0  0999 V2000
  -27.8640   -6.9770  -30.8900 C   0  0  0  0  0  0  0  0  0  0  0  0
  -27.3740   -6.7320  -32.1370 N   0  0  0  0  0  0  0  0  0  0  0  0
  -27.6350   -8.3080  -30.2290 N   0  0  0  0  0  0  0  0  0  0  0  0
  -27.6860   -5.4690  -32.4780 C   0  0  0  0  0  0  0  0  0  0  0  0
  -28.3720   -4.9420  -31.4230 N   0  0  0  0  0  0  0  0  0  0  0  0
  -28.4750   -5.8530  -30.4730 N   0  0  0  0  0  0  0  0  0  0  0  0
  -28.8820   -5.8110  -29.0430 C   0  0  0  0  0  0  0  0  0  0  0  0
  -28.4980   -9.2720  -30.4800 C   0  0  0  0  0  0  0  0  0  0  0  0
  -29.4320   -9.3810  -31.2760 O   0  0  0  0  0  0  0  0  0  0  0  0
  -28.3620  -10.6360  -29.6260 C   0  0  0  0  0  0  0  0  0  0  0  0
  -28.9120  -11.8420  -30.0090 C   0  0  0  0  0  0  0  0  0  0  0  0
  -27.6890  -10.5630  -28.4050 C   0  0  0  0  0  0  0  0  0  0  0  0
  -27.6010  -11.7160  -27.6240 C   0  0  0  0  0  0  0  0  0  0  0  0
  -28.1590  -12.9110  -28.0270 C   0  0  0  0  0  0  0  0  0  0  0  0
  -28.8220  -12.9760  -29.2330 C   0  0  0  0  0  0  0  0  0  0  0  0
  1  2  2  0
  1  6  1  0
  1  3  1  0
  2  4  1  0
  3  8  1  0
  4  5  2  0
  5  6  1  0
  6  7  1  0
  8  9  2  0
  8 10  1  0
 10 11  2  0
 10 12  1  0
 11 15  1  0
 12 13  2  0
 13 14  1  0
 14 15  2  0
M  END
>  <name>  (76) 
Car Nac Nd0 Car Nac Nac Cs3 Cs2 .=O Car Car Car Car Car Car

>  <indices>  (76) 
[0, 1, 2]

>  <tasks>  (76) 
probe_placing close_aromatic_ring close_aromatic_ring close_aromatic_ring ring_built build_to_Nac build_to_Nd0 build_DB_to_Cs2 build_SB_to_Cs2 close_aromatic_ring close_aromatic_ring close_aromatic_ring close_aromatic_ring

>  <prot_clashes>  (76) 
2

>  <NBS phar>  (76) 
0.2

>  <NBS_non-phar>  (76) 
0.44583047231038414

>  <NBS>  (76) 
0.6458304723103842

>  <source_stage>  (76) 
scored

>  <source_iter>  (76) 
12

>  <source_parent_mol>  (76) 
6

>  <source_scenario>  (76) 
1 2 3 1 0 0 0 4 6 2 1 6

>  <source_rank_in_scored_call>  (76) 
0

>  <source_current_task>  (76) 
close_aromatic_ring

>  <scenario>  (76) 
1 2 3 1 0 0 0 4 6 2 1

>  <protected_ring_attachments>  (76) 
3,1,0,2|1,0,2;4,5,0,2|5,0,2

>  <current_task>  (76) 
no_task

>  <rotatable_bond_torsions>  (76) 
1,0,2,7;0,2,7,9;2,7,9,11;9,11,12,13

$$$$

     RDKit          3D

 15 16  0  0  0  0  0  0  0  0999 V2000
  -27.9160   -7.0730  -30.9280 C   0  0  0  0  0  0  0  0  0  0  0  0
  -27.3750   -6.7600  -32.1400 N   0  0  0  0  0  0  0  0  0  0  0  0
  -27.7010   -8.4330  -30.3250 N   0  0  0  0  0  0  0  0  0  0  0  0
  -27.6870   -5.4840  -32.4290 C   0  0  0  0  0  0  0  0  0  0  0  0
  -28.4240   -5.0170  -31.3820 N   0  0  0  0  0  0  0  0  0  0  0  0
  -28.5580   -5.9760  -30.4840 N   0  0  0  0  0  0  0  0  0  0  0  0
  -29.0250   -6.0100  -29.0720 C   0  0  0  0  0  0  0  0  0  0  0  0
  -28.5410   -9.3890  -30.6610 C   0  0  0  0  0  0  0  0  0  0  0  0
  -29.4390   -9.4680  -31.5020 O   0  0  0  0  0  0  0  0  0  0  0  0
  -28.4380  -10.7930  -29.8550 C   0  0  0  0  0  0  0  0  0  0  0  0
  -28.9390  -11.9570  -30.3690 C   0  0  0  0  0  0  0  0  0  0  0  0
  -27.8140  -10.8410  -28.6220 C   0  0  0  0  0  0  0  0  0  0  0  0
  -28.8370  -13.1550  -29.6950 C   0  0  0  0  0  0  0  0  0  0  0  0
  -28.2060  -13.1530  -28.4690 C   0  0  0  0  0  0  0  0  0  0  0  0
  -27.6840  -12.0100  -27.9040 C   0  0  0  0  0  0  0  0  0  0  0  0
  1  2  2  0
  1  6  1  0
  1  3  1  0
  2  4  1  0
  3  8  1  0
  4  5  2  0
  5  6  1  0
  6  7  1  0
  8  9  2  0
  8 10  1  0
 10 11  2  0
 10 12  1  0
 11 13  1  0
 12 15  2  0
 13 14  2  0
 14 15  1  0
M  END
>  <name>  (77) 
Car Nac Nd0 Car Nac Nac Cs3 Cs2 .=O Car Car Car Car Car Car

>  <indices>  (77) 
[0, 1, 2]

>  <tasks>  (77) 
probe_placing close_aromatic_ring close_aromatic_ring close_aromatic_ring ring_built build_to_Nac build_to_Nd0 build_DB_to_Cs2 build_SB_to_Cs2 close_aromatic_ring close_aromatic_ring close_aromatic_ring close_aromatic_ring

>  <prot_clashes>  (77) 
2

>  <NBS phar>  (77) 
0.2

>  <NBS_non-phar>  (77) 
0.5806121826171875

>  <NBS>  (77) 
0.7806121826171875

>  <source_stage>  (77) 
scored

>  <source_iter>  (77) 
12

>  <source_parent_mol>  (77) 
0

>  <source_scenario>  (77) 
1 2 3 1 0 0 0 4 6 2 3 0

>  <source_rank_in_scored_call>  (77) 
0

>  <source_current_task>  (77) 
close_aromatic_ring

>  <scenario>  (77) 
1 2 3 1 0 0 0 4 6 2 3

>  <protected_ring_attachments>  (77) 
3,1,0,2|1,0,2;4,5,0,2|5,0,2

>  <current_task>  (77) 
no_task

>  <rotatable_bond_torsions>  (77) 
1,0,2,7;0,2,7,9;2,7,9,10;7,9,10,12

$$$$

     RDKit          3D

 16 17  0  0  0  0  0  0  0  0999 V2000
  -27.9500   -7.0870  -30.9910 C   0  0  0  0  0  0  0  0  0  0  0  0
  -27.3140   -6.7130  -32.1380 N   0  0  0  0  0  0  0  0  0  0  0  0
  -27.7960   -8.4830  -30.4550 N   0  0  0  0  0  0  0  0  0  0  0  0
  -27.5890   -5.4170  -32.3740 C   0  0  0  0  0  0  0  0  0  0  0  0
  -28.4000   -5.0010  -31.3610 N   0  0  0  0  0  0  0  0  0  0  0  0
  -28.6130   -6.0090  -30.5340 N   0  0  0  0  0  0  0  0  0  0  0  0
  -29.1880   -6.1180  -29.1660 C   0  0  0  0  0  0  0  0  0  0  0  0
  -28.6170   -9.4060  -30.9100 C   0  0  0  0  0  0  0  0  0  0  0  0
  -29.4480   -9.4230  -31.8210 O   0  0  0  0  0  0  0  0  0  0  0  0
  -28.5910  -10.8550  -30.1830 C   0  0  0  0  0  0  0  0  0  0  0  0
  -29.0620  -11.9800  -30.8020 C   0  0  0  0  0  0  0  0  0  0  0  0
  -28.0650  -10.9840  -28.9110 C   0  0  0  0  0  0  0  0  0  0  0  0
  -29.0250  -13.2170  -30.1940 C   0  0  0  0  0  0  0  0  0  0  0  0
  -28.4910  -13.2950  -28.9250 C   0  0  0  0  0  0  0  0  0  0  0  0
  -28.0020  -12.1950  -28.2550 C   0  0  0  0  0  0  0  0  0  0  0  0
  -28.4030   -7.0070  -28.2540 C   0  0  0  0  0  0  0  0  0  0  0  0
  1  2  2  0
  1  6  1  0
  1  3  1  0
  2  4  1  0
  3  8  1  0
  4  5  2  0
  5  6  1  0
  6  7  1  0
  8  9  2  0
  8 10  1  0
 10 11  2  0
 10 12  1  0
 11 13  1  0
 12 15  2  0
 13 14  2  0
 14 15  1  0
  7 16  1  0
M  END
>  <name>  (78) 
Car Nac Nd0 Car Nac Nac Cs3 Cs2 .=O Car Car Car Car Car Car Cs3

>  <indices>  (78) 
[0, 1, 2]

>  <tasks>  (78) 
probe_placing close_aromatic_ring close_aromatic_ring close_aromatic_ring ring_built build_to_Nac build_to_Nd0 build_DB_to_Cs2 build_SB_to_Cs2 close_aromatic_ring close_aromatic_ring close_aromatic_ring close_aromatic_ring close_aromatic_ring

>  <prot_clashes>  (78) 
5

>  <NBS phar>  (78) 
0.2

>  <NBS_non-phar>  (78) 
0.5658407807350159

>  <NBS>  (78) 
0.7658407807350158

>  <source_stage>  (78) 
scored

>  <source_iter>  (78) 
13

>  <source_parent_mol>  (78) 
0

>  <source_scenario>  (78) 
1 2 3 1 0 0 0 4 6 2 3 0 0

>  <source_rank_in_scored_call>  (78) 
17

>  <source_current_task>  (78) 
no_task

>  <scenario>  (78) 
1 2 3 1 0 0 0 4 6 2 3 0

>  <protected_ring_attachments>  (78) 
3,1,0,2|1,0,2;4,5,0,2|5,0,2

>  <current_task>  (78) 
no_task

>  <rotatable_bond_torsions>  (78) 
1,0,2,7;0,2,7,9;2,7,9,10

$$$$

     RDKit          3D

 16 17  0  0  0  0  0  0  0  0999 V2000
  -27.9160   -7.0640  -30.9360 C   0  0  0  0  0  0  0  0  0  0  0  0
  -27.3480   -6.6480  -32.1040 N   0  0  0  0  0  0  0  0  0  0  0  0
  -27.7810   -8.4920  -30.4890 N   0  0  0  0  0  0  0  0  0  0  0  0
  -27.5870   -5.3320  -32.2490 C   0  0  0  0  0  0  0  0  0  0  0  0
  -28.3060   -4.9450  -31.1580 N   0  0  0  0  0  0  0  0  0  0  0  0
  -28.5010   -5.9890  -30.3740 N   0  0  0  0  0  0  0  0  0  0  0  0
  -28.9810   -6.1550  -28.9750 C   0  0  0  0  0  0  0  0  0  0  0  0
  -28.6690   -9.3570  -30.9320 C   0  0  0  0  0  0  0  0  0  0  0  0
  -29.5630   -9.2910  -31.7790 O   0  0  0  0  0  0  0  0  0  0  0  0
  -28.6500  -10.8460  -30.2880 C   0  0  0  0  0  0  0  0  0  0  0  0
  -29.2100  -11.9150  -30.9310 C   0  0  0  0  0  0  0  0  0  0  0  0
  -28.0410  -11.0660  -29.0670 C   0  0  0  0  0  0  0  0  0  0  0  0
  -29.1800  -13.1850  -30.3950 C   0  0  0  0  0  0  0  0  0  0  0  0
  -28.5600  -13.3550  -29.1750 C   0  0  0  0  0  0  0  0  0  0  0  0
  -27.9810  -12.3130  -28.4840 C   0  0  0  0  0  0  0  0  0  0  0  0
  -27.3130  -12.5280  -27.1490 C   0  0  0  0  0  0  0  0  0  0  0  0
  1  2  2  0
  1  3  1  0
  1  6  1  0
  2  4  1  0
  3  8  1  0
  4  5  2  0
  5  6  1  0
  6  7  1  0
  8  9  2  0
  8 10  1  0
 10 11  2  0
 10 12  1  0
 11 13  1  0
 12 15  2  0
 13 14  2  0
 14 15  1  0
 15 16  1  0
M  END
>  <name>  (79) 
Car Nac Nd0 Car Nac Nac Cs3 Cs2 .=O Car Car Car Car Car Car Cs3

>  <indices>  (79) 
[0, 1, 2]

>  <tasks>  (79) 
probe_placing close_aromatic_ring close_aromatic_ring close_aromatic_ring ring_built build_to_Nac build_to_Nd0 build_DB_to_Cs2 build_SB_to_Cs2 close_aromatic_ring close_aromatic_ring close_aromatic_ring close_aromatic_ring close_aromatic_ring

>  <prot_clashes>  (79) 
0

>  <NBS phar>  (79) 
0.2

>  <NBS_non-phar>  (79) 
0.5544683933258057

>  <NBS>  (79) 
0.7544683933258056

>  <source_stage>  (79) 
scored

>  <source_iter>  (79) 
13

>  <source_parent_mol>  (79) 
0

>  <source_scenario>  (79) 
1 2 3 1 0 0 0 4 6 2 3 0 0

>  <source_rank_in_scored_call>  (79) 
22

>  <source_current_task>  (79) 
no_task

>  <scenario>  (79) 
1 2 3 1 0 0 0 4 6 2 3 0

>  <protected_ring_attachments>  (79) 
3,1,0,2|1,0,2;4,5,0,2|5,0,2

>  <current_task>  (79) 
no_task

>  <rotatable_bond_torsions>  (79) 
1,0,2,7;0,2,7,9;2,7,9,10

$$$$

     RDKit          3D

 16 17  0  0  0  0  0  0  0  0999 V2000
  -27.9210   -7.0030  -30.8690 C   0  0  0  0  0  0  0  0  0  0  0  0
  -27.3950   -6.7490  -32.1010 N   0  0  0  0  0  0  0  0  0  0  0  0
  -27.7050   -8.3350  -30.2070 N   0  0  0  0  0  0  0  0  0  0  0  0
  -27.7030   -5.4860  -32.4440 C   0  0  0  0  0  0  0  0  0  0  0  0
  -28.4230   -4.9660  -31.4100 N   0  0  0  0  0  0  0  0  0  0  0  0
  -28.5500   -5.8820  -30.4670 N   0  0  0  0  0  0  0  0  0  0  0  0
  -28.9980   -5.8490  -29.0490 C   0  0  0  0  0  0  0  0  0  0  0  0
  -28.5550   -9.3000  -30.4870 C   0  0  0  0  0  0  0  0  0  0  0  0
  -29.4650   -9.4120  -31.3110 O   0  0  0  0  0  0  0  0  0  0  0  0
  -28.4490  -10.6660  -29.6190 C   0  0  0  0  0  0  0  0  0  0  0  0
  -28.9640  -11.8490  -30.0720 C   0  0  0  0  0  0  0  0  0  0  0  0
  -27.8090  -10.6620  -28.3940 C   0  0  0  0  0  0  0  0  0  0  0  0
  -28.8600  -13.0160  -29.3450 C   0  0  0  0  0  0  0  0  0  0  0  0
  -28.2120  -12.9620  -28.1290 C   0  0  0  0  0  0  0  0  0  0  0  0
  -27.6760  -11.7970  -27.6240 C   0  0  0  0  0  0  0  0  0  0  0  0
  -29.4360  -14.3110  -29.8640 C   0  0  0  0  0  0  0  0  0  0  0  0
  1  2  2  0
  1  6  1  0
  1  3  1  0
  2  4  1  0
  3  8  1  0
  4  5  2  0
  5  6  1  0
  6  7  1  0
  8  9  2  0
  8 10  1  0
 10 11  2  0
 10 12  1  0
 11 13  1  0
 12 15  2  0
 13 16  1  0
 13 14  2  0
 14 15  1  0
M  END
>  <name>  (80) 
Car Nac Nd0 Car Nac Nac Cs3 Cs2 .=O Car Car Car Car Car Car Cs3

>  <indices>  (80) 
[0, 1, 2]

>  <tasks>  (80) 
probe_placing close_aromatic_ring close_aromatic_ring close_aromatic_ring ring_built build_to_Nac build_to_Nd0 build_DB_to_Cs2 build_SB_to_Cs2 close_aromatic_ring close_aromatic_ring close_aromatic_ring close_aromatic_ring close_aromatic_ring

>  <prot_clashes>  (80) 
2

>  <NBS phar>  (80) 
0.24

>  <NBS_non-phar>  (80) 
0.4986911714076996

>  <NBS>  (80) 
0.7386911714076996

>  <source_stage>  (80) 
scored

>  <source_iter>  (80) 
13

>  <source_parent_mol>  (80) 
0

>  <source_scenario>  (80) 
1 2 3 1 0 0 0 4 6 2 3 0 0

>  <source_rank_in_scored_call>  (80) 
34

>  <source_current_task>  (80) 
no_task

>  <scenario>  (80) 
1 2 3 1 0 0 0 4 6 2 3 0

>  <protected_ring_attachments>  (80) 
3,1,0,2|1,0,2;4,5,0,2|5,0,2

>  <current_task>  (80) 
no_task

>  <rotatable_bond_torsions>  (80) 
1,0,2,7;0,2,7,9;2,7,9,10

$$$$

     RDKit          3D

 16 17  0  0  0  0  0  0  0  0999 V2000
  -27.9210   -6.9830  -30.9020 C   0  0  0  0  0  0  0  0  0  0  0  0
  -27.3780   -6.7450  -32.1300 N   0  0  0  0  0  0  0  0  0  0  0  0
  -27.7100   -8.3060  -30.2200 N   0  0  0  0  0  0  0  0  0  0  0  0
  -27.6850   -5.4870  -32.4950 C   0  0  0  0  0  0  0  0  0  0  0  0
  -28.4220   -4.9570  -31.4780 N   0  0  0  0  0  0  0  0  0  0  0  0
  -28.5600   -5.8600  -30.5250 N   0  0  0  0  0  0  0  0  0  0  0  0
  -29.0280   -5.8090  -29.1140 C   0  0  0  0  0  0  0  0  0  0  0  0
  -28.5530   -9.2780  -30.4990 C   0  0  0  0  0  0  0  0  0  0  0  0
  -29.4500   -9.4040  -31.3350 O   0  0  0  0  0  0  0  0  0  0  0  0
  -28.4550  -10.6320  -29.6110 C   0  0  0  0  0  0  0  0  0  0  0  0
  -28.9590  -11.8230  -30.0560 C   0  0  0  0  0  0  0  0  0  0  0  0
  -27.8320  -10.6080  -28.3770 C   0  0  0  0  0  0  0  0  0  0  0  0
  -28.8610  -12.9790  -29.3120 C   0  0  0  0  0  0  0  0  0  0  0  0
  -28.2320  -12.9060  -28.0870 C   0  0  0  0  0  0  0  0  0  0  0  0
  -27.7060  -11.7330  -27.5910 C   0  0  0  0  0  0  0  0  0  0  0  0
  -28.1120  -14.1610  -27.2580 C   0  0  0  0  0  0  0  0  0  0  0  0
  1  2  2  0
  1  6  1  0
  1  3  1  0
  2  4  1  0
  3  8  1  0
  4  5  2  0
  5  6  1  0
  6  7  1  0
  8  9  2  0
  8 10  1  0
 10 11  2  0
 10 12  1  0
 11 13  1  0
 12 15  2  0
 13 14  2  0
 14 15  1  0
 14 16  1  0
M  END
>  <name>  (81) 
Car Nac Nd0 Car Nac Nac Cs3 Cs2 .=O Car Car Car Car Car Car Cs3

>  <indices>  (81) 
[0, 1, 2]

>  <tasks>  (81) 
probe_placing close_aromatic_ring close_aromatic_ring close_aromatic_ring ring_built build_to_Nac build_to_Nd0 build_DB_to_Cs2 build_SB_to_Cs2 close_aromatic_ring close_aromatic_ring close_aromatic_ring close_aromatic_ring close_aromatic_ring

>  <prot_clashes>  (81) 
2

>  <NBS phar>  (81) 
0.24

>  <NBS_non-phar>  (81) 
0.48487389087677

>  <NBS>  (81) 
0.72487389087677

>  <source_stage>  (81) 
scored

>  <source_iter>  (81) 
13

>  <source_parent_mol>  (81) 
0

>  <source_scenario>  (81) 
1 2 3 1 0 0 0 4 6 2 3 0 0

>  <source_rank_in_scored_call>  (81) 
53

>  <source_current_task>  (81) 
no_task

>  <scenario>  (81) 
1 2 3 1 0 0 0 4 6 2 3 0

>  <protected_ring_attachments>  (81) 
3,1,0,2|1,0,2;4,5,0,2|5,0,2

>  <current_task>  (81) 
no_task

>  <rotatable_bond_torsions>  (81) 
1,0,2,7;0,2,7,9;2,7,9,10

$$$$

     RDKit          3D

 16 17  0  0  0  0  0  0  0  0999 V2000
  -27.8730   -6.9220  -30.9090 C   0  0  0  0  0  0  0  0  0  0  0  0
  -27.3430   -6.6890  -32.1430 N   0  0  0  0  0  0  0  0  0  0  0  0
  -27.6470   -8.2380  -30.2180 N   0  0  0  0  0  0  0  0  0  0  0  0
  -27.6630   -5.4370  -32.5150 C   0  0  0  0  0  0  0  0  0  0  0  0
  -28.3950   -4.9040  -31.4960 N   0  0  0  0  0  0  0  0  0  0  0  0
  -28.5170   -5.8010  -30.5350 N   0  0  0  0  0  0  0  0  0  0  0  0
  -28.9740   -5.7410  -29.1200 C   0  0  0  0  0  0  0  0  0  0  0  0
  -28.4850   -9.2180  -30.4820 C   0  0  0  0  0  0  0  0  0  0  0  0
  -29.3890   -9.3570  -31.3090 O   0  0  0  0  0  0  0  0  0  0  0  0
  -28.3690  -10.5640  -29.5840 C   0  0  0  0  0  0  0  0  0  0  0  0
  -28.8680  -11.7620  -30.0150 C   0  0  0  0  0  0  0  0  0  0  0  0
  -27.7360  -10.5260  -28.3560 C   0  0  0  0  0  0  0  0  0  0  0  0
  -28.7560  -12.9110  -29.2630 C   0  0  0  0  0  0  0  0  0  0  0  0
  -28.1160  -12.8240  -28.0440 C   0  0  0  0  0  0  0  0  0  0  0  0
  -27.5950  -11.6430  -27.5620 C   0  0  0  0  0  0  0  0  0  0  0  0
  -29.1890   -4.3120  -28.6160 C   0  0  0  0  0  0  0  0  0  0  0  0
  1  2  2  0
  1  6  1  0
  1  3  1  0
  2  4  1  0
  3  8  1  0
  4  5  2  0
  5  6  1  0
  6  7  1  0
  8  9  2  0
  8 10  1  0
 10 11  2  0
 10 12  1  0
 11 13  1  0
 12 15  2  0
 13 14  2  0
 14 15  1  0
  7 16  1  0
M  END
>  <name>  (82) 
Car Nac Nd0 Car Nac Nac Cs3 Cs2 .=O Car Car Car Car Car Car Cs3

>  <indices>  (82) 
[0, 1, 2]

>  <tasks>  (82) 
probe_placing close_aromatic_ring close_aromatic_ring close_aromatic_ring ring_built build_to_Nac build_to_Nd0 build_DB_to_Cs2 build_SB_to_Cs2 close_aromatic_ring close_aromatic_ring close_aromatic_ring close_aromatic_ring close_aromatic_ring

>  <prot_clashes>  (82) 
3

>  <NBS phar>  (82) 
0.24000000000000005

>  <NBS_non-phar>  (82) 
0.4424337148666382

>  <NBS>  (82) 
0.6824337148666382

>  <source_stage>  (82) 
scored

>  <source_iter>  (82) 
13

>  <source_parent_mol>  (82) 
0

>  <source_scenario>  (82) 
1 2 3 1 0 0 0 4 6 2 3 0 0

>  <source_rank_in_scored_call>  (82) 
78

>  <source_current_task>  (82) 
no_task

>  <scenario>  (82) 
1 2 3 1 0 0 0 4 6 2 3 0

>  <protected_ring_attachments>  (82) 
3,1,0,2|1,0,2;4,5,0,2|5,0,2

>  <current_task>  (82) 
no_task

>  <rotatable_bond_torsions>  (82) 
1,0,2,7;0,2,7,9;2,7,9,10

$$$$

     RDKit          3D

 16 17  0  0  0  0  0  0  0  0999 V2000
  -27.8910   -6.9700  -30.9250 C   0  0  0  0  0  0  0  0  0  0  0  0
  -27.3130   -6.7120  -32.1340 N   0  0  0  0  0  0  0  0  0  0  0  0
  -27.6540   -8.2830  -30.2320 N   0  0  0  0  0  0  0  0  0  0  0  0
  -27.6560   -5.4680  -32.5120 C   0  0  0  0  0  0  0  0  0  0  0  0
  -28.4480   -4.9650  -31.5240 N   0  0  0  0  0  0  0  0  0  0  0  0
  -28.5850   -5.8720  -30.5740 N   0  0  0  0  0  0  0  0  0  0  0  0
  -29.1050   -5.8360  -29.1810 C   0  0  0  0  0  0  0  0  0  0  0  0
  -28.4490   -9.2860  -30.5390 C   0  0  0  0  0  0  0  0  0  0  0  0
  -29.3100   -9.4480  -31.4060 O   0  0  0  0  0  0  0  0  0  0  0  0
  -28.3310  -10.6340  -29.6440 C   0  0  0  0  0  0  0  0  0  0  0  0
  -28.7730  -11.8440  -30.1030 C   0  0  0  0  0  0  0  0  0  0  0  0
  -27.7540  -10.5860  -28.3890 C   0  0  0  0  0  0  0  0  0  0  0  0
  -28.6580  -12.9950  -29.3530 C   0  0  0  0  0  0  0  0  0  0  0  0
  -28.0750  -12.8960  -28.1070 C   0  0  0  0  0  0  0  0  0  0  0  0
  -27.6140  -11.7040  -27.5950 C   0  0  0  0  0  0  0  0  0  0  0  0
  -29.1780   -4.3060  -28.7470 C   0  0  0  0  0  0  0  0  0  0  0  0
  1  2  2  0
  1  6  1  0
  1  3  1  0
  2  4  1  0
  3  8  1  0
  4  5  2  0
  5  6  1  0
  6  7  1  0
  8  9  2  0
  8 10  1  0
 10 11  2  0
 10 12  1  0
 11 13  1  0
 12 15  2  0
 13 14  2  0
 14 15  1  0
  7 16  1  0
M  END
>  <name>  (83) 
Car Nac Nd0 Car Nac Nac Cs3 Cs2 .=O Car Car Car Car Car Car Cs3

>  <indices>  (83) 
[0, 1, 2]

>  <tasks>  (83) 
probe_placing close_aromatic_ring close_aromatic_ring close_aromatic_ring ring_built build_to_Nac build_to_Nd0 build_DB_to_Cs2 build_SB_to_Cs2 close_aromatic_ring close_aromatic_ring close_aromatic_ring close_aromatic_ring close_aromatic_ring

>  <prot_clashes>  (83) 
4

>  <NBS phar>  (83) 
0.22000000000000003

>  <NBS_non-phar>  (83) 
0.4606682360172272

>  <NBS>  (83) 
0.6806682360172271

>  <source_stage>  (83) 
scored

>  <source_iter>  (83) 
13

>  <source_parent_mol>  (83) 
0

>  <source_scenario>  (83) 
1 2 3 1 0 0 0 4 6 2 3 0 0

>  <source_rank_in_scored_call>  (83) 
79

>  <source_current_task>  (83) 
no_task

>  <scenario>  (83) 
1 2 3 1 0 0 0 4 6 2 3 0

>  <protected_ring_attachments>  (83) 
3,1,0,2|1,0,2;4,5,0,2|5,0,2

>  <current_task>  (83) 
no_task

>  <rotatable_bond_torsions>  (83) 
1,0,2,7;0,2,7,9;2,7,9,10

$$$$

     RDKit          3D

 16 17  0  0  0  0  0  0  0  0999 V2000
  -27.8060   -7.0020  -30.8520 C   0  0  0  0  0  0  0  0  0  0  0  0
  -27.4150   -6.7780  -32.1390 N   0  0  0  0  0  0  0  0  0  0  0  0
  -27.6070   -8.3500  -30.2170 N   0  0  0  0  0  0  0  0  0  0  0  0
  -27.6740   -5.4940  -32.4450 C   0  0  0  0  0  0  0  0  0  0  0  0
  -28.2260   -4.9330  -31.3330 N   0  0  0  0  0  0  0  0  0  0  0  0
  -28.3030   -5.8430  -30.3800 N   0  0  0  0  0  0  0  0  0  0  0  0
  -28.5740   -5.7870  -28.9180 C   0  0  0  0  0  0  0  0  0  0  0  0
  -28.5500   -9.2520  -30.3920 C   0  0  0  0  0  0  0  0  0  0  0  0
  -29.5580   -9.2950  -31.1000 O   0  0  0  0  0  0  0  0  0  0  0  0
  -28.4360  -10.6280  -29.5390 C   0  0  0  0  0  0  0  0  0  0  0  0
  -29.0830  -11.7690  -29.9250 C   0  0  0  0  0  0  0  0  0  0  0  0
  -27.6550  -10.6750  -28.4000 C   0  0  0  0  0  0  0  0  0  0  0  0
  -28.9750  -12.9450  -29.2130 C   0  0  0  0  0  0  0  0  0  0  0  0
  -28.1830  -12.9430  -28.0840 C   0  0  0  0  0  0  0  0  0  0  0  0
  -27.5100  -11.8220  -27.6500 C   0  0  0  0  0  0  0  0  0  0  0  0
  -29.5610   -4.6960  -28.5640 C   0  0  0  0  0  0  0  0  0  0  0  0
  1  2  2  0
  1  6  1  0
  1  3  1  0
  2  4  1  0
  3  8  1  0
  4  5  2  0
  5  6  1  0
  6  7  1  0
  8  9  2  0
  8 10  1  0
 10 11  2  0
 10 12  1  0
 11 13  1  0
 12 15  2  0
 13 14  2  0
 14 15  1  0
  7 16  1  0
M  END
>  <name>  (84) 
Car Nac Nd0 Car Nac Nac Cs3 Cs2 .=O Car Car Car Car Car Car Cs3

>  <indices>  (84) 
[0, 1, 2]

>  <tasks>  (84) 
probe_placing close_aromatic_ring close_aromatic_ring close_aromatic_ring ring_built build_to_Nac build_to_Nd0 build_DB_to_Cs2 build_SB_to_Cs2 close_aromatic_ring close_aromatic_ring close_aromatic_ring close_aromatic_ring close_aromatic_ring

>  <prot_clashes>  (84) 
3

>  <NBS phar>  (84) 
0.22000000000000003

>  <NBS_non-phar>  (84) 
0.4544849395751953

>  <NBS>  (84) 
0.6744849395751953

>  <source_stage>  (84) 
scored

>  <source_iter>  (84) 
13

>  <source_parent_mol>  (84) 
0

>  <source_scenario>  (84) 
1 2 3 1 0 0 0 4 6 2 3 0 0

>  <source_rank_in_scored_call>  (84) 
82

>  <source_current_task>  (84) 
no_task

>  <scenario>  (84) 
1 2 3 1 0 0 0 4 6 2 3 0

>  <protected_ring_attachments>  (84) 
3,1,0,2|1,0,2;4,5,0,2|5,0,2

>  <current_task>  (84) 
no_task

>  <rotatable_bond_torsions>  (84) 
1,0,2,7;0,2,7,9;2,7,9,10

$$$$

     RDKit          3D

 16 17  0  0  0  0  0  0  0  0999 V2000
  -27.7120   -6.8770  -30.8120 C   0  0  0  0  0  0  0  0  0  0  0  0
  -27.4650   -6.7550  -32.1480 N   0  0  0  0  0  0  0  0  0  0  0  0
  -27.5170   -8.1960  -30.1180 N   0  0  0  0  0  0  0  0  0  0  0  0
  -27.6830   -5.4770  -32.5060 C   0  0  0  0  0  0  0  0  0  0  0  0
  -28.0650   -4.8160  -31.3770 N   0  0  0  0  0  0  0  0  0  0  0  0
  -28.0800   -5.6620  -30.3630 N   0  0  0  0  0  0  0  0  0  0  0  0
  -28.1700   -5.5030  -28.8870 C   0  0  0  0  0  0  0  0  0  0  0  0
  -28.5240   -9.0420  -30.1220 C   0  0  0  0  0  0  0  0  0  0  0  0
  -29.6110   -9.0600  -30.7040 O   0  0  0  0  0  0  0  0  0  0  0  0
  -28.3900  -10.3700  -29.1990 C   0  0  0  0  0  0  0  0  0  0  0  0
  -29.1440  -11.4870  -29.4310 C   0  0  0  0  0  0  0  0  0  0  0  0
  -27.4820  -10.4020  -28.1570 C   0  0  0  0  0  0  0  0  0  0  0  0
  -29.0190  -12.6230  -28.6610 C   0  0  0  0  0  0  0  0  0  0  0  0
  -28.1000  -12.6080  -27.6330 C   0  0  0  0  0  0  0  0  0  0  0  0
  -27.3150  -11.5100  -27.3550 C   0  0  0  0  0  0  0  0  0  0  0  0
  -29.6440   -5.0990  -28.5840 C   0  0  0  0  0  0  0  0  0  0  0  0
  1  2  2  0
  1  6  1  0
  1  3  1  0
  2  4  1  0
  3  8  1  0
  4  5  2  0
  5  6  1  0
  6  7  1  0
  8  9  2  0
  8 10  1  0
 10 11  2  0
 10 12  1  0
 11 13  1  0
 12 15  2  0
 13 14  2  0
 14 15  1  0
  7 16  1  0
M  END
>  <name>  (85) 
Car Nac Nd0 Car Nac Nac Cs3 Cs2 .=O Car Car Car Car Car Car Cs3

>  <indices>  (85) 
[0, 1, 2]

>  <tasks>  (85) 
probe_placing close_aromatic_ring close_aromatic_ring close_aromatic_ring ring_built build_to_Nac build_to_Nd0 build_DB_to_Cs2 build_SB_to_Cs2 close_aromatic_ring close_aromatic_ring close_aromatic_ring close_aromatic_ring close_aromatic_ring

>  <prot_clashes>  (85) 
5

>  <NBS phar>  (85) 
0.22000000000000003

>  <NBS_non-phar>  (85) 
0.40646082162857056

>  <NBS>  (85) 
0.6264608216285705

>  <source_stage>  (85) 
scored

>  <source_iter>  (85) 
13

>  <source_parent_mol>  (85) 
0

>  <source_scenario>  (85) 
1 2 3 1 0 0 0 4 6 2 3 0 0

>  <source_rank_in_scored_call>  (85) 
102

>  <source_current_task>  (85) 
no_task

>  <scenario>  (85) 
1 2 3 1 0 0 0 4 6 2 3 0

>  <protected_ring_attachments>  (85) 
3,1,0,2|1,0,2;4,5,0,2|5,0,2

>  <current_task>  (85) 
no_task

>  <rotatable_bond_torsions>  (85) 
1,0,2,7;0,2,7,9;2,7,9,10

$$$$

     RDKit          3D

 16 17  0  0  0  0  0  0  0  0999 V2000
  -27.7030   -6.7310  -30.7830 C   0  0  0  0  0  0  0  0  0  0  0  0
  -27.4580   -6.6450  -32.1220 N   0  0  0  0  0  0  0  0  0  0  0  0
  -27.5110   -8.0310  -30.0540 N   0  0  0  0  0  0  0  0  0  0  0  0
  -27.6720   -5.3770  -32.5140 C   0  0  0  0  0  0  0  0  0  0  0  0
  -28.0510   -4.6850  -31.4030 N   0  0  0  0  0  0  0  0  0  0  0  0
  -28.0670   -5.5030  -30.3660 N   0  0  0  0  0  0  0  0  0  0  0  0
  -28.1550   -5.3040  -28.8950 C   0  0  0  0  0  0  0  0  0  0  0  0
  -28.5220   -8.8740  -30.0340 C   0  0  0  0  0  0  0  0  0  0  0  0
  -29.6080   -8.9050  -30.6150 O   0  0  0  0  0  0  0  0  0  0  0  0
  -28.3900  -10.1770  -29.0760 C   0  0  0  0  0  0  0  0  0  0  0  0
  -29.1470  -11.2980  -29.2770 C   0  0  0  0  0  0  0  0  0  0  0  0
  -27.4800  -10.1840  -28.0350 C   0  0  0  0  0  0  0  0  0  0  0  0
  -29.0250  -12.4130  -28.4770 C   0  0  0  0  0  0  0  0  0  0  0  0
  -28.1040  -12.3730  -27.4510 C   0  0  0  0  0  0  0  0  0  0  0  0
  -27.3160  -11.2700  -27.2030 C   0  0  0  0  0  0  0  0  0  0  0  0
  -29.6100   -5.2590  -28.5110 C   0  0  0  0  0  0  0  0  0  0  0  0
  1  2  2  0
  1  6  1  0
  1  3  1  0
  2  4  1  0
  3  8  1  0
  4  5  2  0
  5  6  1  0
  6  7  1  0
  8  9  2  0
  8 10  1  0
 10 11  2  0
 10 12  1  0
 11 13  1  0
 12 15  2  0
 13 14  2  0
 14 15  1  0
  7 16  1  0
M  END
>  <name>  (86) 
Car Nac Nd0 Car Nac Nac Cs3 Cs2 .=O Car Car Car Car Car Car Cs3

>  <indices>  (86) 
[0, 1, 2]

>  <tasks>  (86) 
probe_placing close_aromatic_ring close_aromatic_ring close_aromatic_ring ring_built build_to_Nac build_to_Nd0 build_DB_to_Cs2 build_SB_to_Cs2 close_aromatic_ring close_aromatic_ring close_aromatic_ring close_aromatic_ring close_aromatic_ring

>  <prot_clashes>  (86) 
6

>  <NBS phar>  (86) 
0.24000000000000005

>  <NBS_non-phar>  (86) 
0.3741712272167206

>  <NBS>  (86) 
0.6141712272167206

>  <source_stage>  (86) 
scored

>  <source_iter>  (86) 
13

>  <source_parent_mol>  (86) 
0

>  <source_scenario>  (86) 
1 2 3 1 0 0 0 4 6 2 3 0 0

>  <source_rank_in_scored_call>  (86) 
106

>  <source_current_task>  (86) 
no_task

>  <scenario>  (86) 
1 2 3 1 0 0 0 4 6 2 3 0

>  <protected_ring_attachments>  (86) 
3,1,0,2|1,0,2;4,5,0,2|5,0,2

>  <current_task>  (86) 
no_task

>  <rotatable_bond_torsions>  (86) 
1,0,2,7;0,2,7,9;2,7,9,10

$$$$

     RDKit          3D

 16 17  0  0  0  0  0  0  0  0999 V2000
  -27.7150   -6.7740  -30.7920 C   0  0  0  0  0  0  0  0  0  0  0  0
  -27.4810   -6.6840  -32.1320 N   0  0  0  0  0  0  0  0  0  0  0  0
  -27.5250   -8.0790  -30.0700 N   0  0  0  0  0  0  0  0  0  0  0  0
  -27.6910   -5.4120  -32.5170 C   0  0  0  0  0  0  0  0  0  0  0  0
  -28.0540   -4.7230  -31.3990 N   0  0  0  0  0  0  0  0  0  0  0  0
  -28.0670   -5.5460  -30.3660 N   0  0  0  0  0  0  0  0  0  0  0  0
  -28.1400   -5.3530  -28.8930 C   0  0  0  0  0  0  0  0  0  0  0  0
  -28.5400   -8.9150  -30.0450 C   0  0  0  0  0  0  0  0  0  0  0  0
  -29.6330   -8.9360  -30.6160 O   0  0  0  0  0  0  0  0  0  0  0  0
  -28.4090  -10.2230  -29.0940 C   0  0  0  0  0  0  0  0  0  0  0  0
  -29.1760  -11.3380  -29.2930 C   0  0  0  0  0  0  0  0  0  0  0  0
  -27.4900  -10.2410  -28.0620 C   0  0  0  0  0  0  0  0  0  0  0  0
  -29.0540  -12.4580  -28.4990 C   0  0  0  0  0  0  0  0  0  0  0  0
  -28.1230  -12.4290  -27.4820 C   0  0  0  0  0  0  0  0  0  0  0  0
  -27.3260  -11.3320  -27.2360 C   0  0  0  0  0  0  0  0  0  0  0  0
  -29.6170   -5.3560  -28.4760 C   0  0  0  0  0  0  0  0  0  0  0  0
  1  2  2  0
  1  6  1  0
  1  3  1  0
  2  4  1  0
  3  8  1  0
  4  5  2  0
  5  6  1  0
  6  7  1  0
  8  9  2  0
  8 10  1  0
 10 11  2  0
 10 12  1  0
 11 13  1  0
 12 15  2  0
 13 14  2  0
 14 15  1  0
  7 16  1  0
M  END
>  <name>  (87) 
Car Nac Nd0 Car Nac Nac Cs3 Cs2 .=O Car Car Car Car Car Car Cs3

>  <indices>  (87) 
[0, 1, 2]

>  <tasks>  (87) 
probe_placing close_aromatic_ring close_aromatic_ring close_aromatic_ring ring_built build_to_Nac build_to_Nd0 build_DB_to_Cs2 build_SB_to_Cs2 close_aromatic_ring close_aromatic_ring close_aromatic_ring close_aromatic_ring close_aromatic_ring

>  <prot_clashes>  (87) 
6

>  <NBS phar>  (87) 
0.22000000000000003

>  <NBS_non-phar>  (87) 
0.379142701625824

>  <NBS>  (87) 
0.599142701625824

>  <source_stage>  (87) 
scored

>  <source_iter>  (87) 
13

>  <source_parent_mol>  (87) 
0

>  <source_scenario>  (87) 
1 2 3 1 0 0 0 4 6 2 3 0 0

>  <source_rank_in_scored_call>  (87) 
113

>  <source_current_task>  (87) 
no_task

>  <scenario>  (87) 
1 2 3 1 0 0 0 4 6 2 3 0

>  <protected_ring_attachments>  (87) 
3,1,0,2|1,0,2;4,5,0,2|5,0,2

>  <current_task>  (87) 
no_task

>  <rotatable_bond_torsions>  (87) 
1,0,2,7;0,2,7,9;2,7,9,10

$$$$

     RDKit          3D

 16 17  0  0  0  0  0  0  0  0999 V2000
  -27.6800   -6.6000  -30.7660 C   0  0  0  0  0  0  0  0  0  0  0  0
  -27.4120   -6.5400  -32.1010 N   0  0  0  0  0  0  0  0  0  0  0  0
  -27.5030   -7.8870  -30.0100 N   0  0  0  0  0  0  0  0  0  0  0  0
  -27.6180   -5.2780  -32.5210 C   0  0  0  0  0  0  0  0  0  0  0  0
  -28.0150   -4.5660  -31.4290 N   0  0  0  0  0  0  0  0  0  0  0  0
  -28.0500   -5.3650  -30.3780 N   0  0  0  0  0  0  0  0  0  0  0  0
  -28.1630   -5.1390  -28.9120 C   0  0  0  0  0  0  0  0  0  0  0  0
  -28.5140   -8.7290  -29.9920 C   0  0  0  0  0  0  0  0  0  0  0  0
  -29.5910   -8.7690  -30.5910 O   0  0  0  0  0  0  0  0  0  0  0  0
  -28.4010  -10.0140  -29.0090 C   0  0  0  0  0  0  0  0  0  0  0  0
  -29.1560  -11.1380  -29.2020 C   0  0  0  0  0  0  0  0  0  0  0  0
  -27.5090  -10.0030  -27.9520 C   0  0  0  0  0  0  0  0  0  0  0  0
  -29.0490  -12.2390  -28.3790 C   0  0  0  0  0  0  0  0  0  0  0  0
  -28.1460  -12.1800  -27.3390 C   0  0  0  0  0  0  0  0  0  0  0  0
  -27.3610  -11.0740  -27.0980 C   0  0  0  0  0  0  0  0  0  0  0  0
  -29.5870   -5.4730  -28.5380 C   0  0  0  0  0  0  0  0  0  0  0  0
  1  2  2  0
  1  6  1  0
  1  3  1  0
  2  4  1  0
  3  8  1  0
  4  5  2  0
  5  6  1  0
  6  7  1  0
  8  9  2  0
  8 10  1  0
 10 11  2  0
 10 12  1  0
 11 13  1  0
 12 15  2  0
 13 14  2  0
 14 15  1  0
  7 16  1  0
M  END
>  <name>  (88) 
Car Nac Nd0 Car Nac Nac Cs3 Cs2 .=O Car Car Car Car Car Car Cs3

>  <indices>  (88) 
[0, 1, 2]

>  <tasks>  (88) 
probe_placing close_aromatic_ring close_aromatic_ring close_aromatic_ring ring_built build_to_Nac build_to_Nd0 build_DB_to_Cs2 build_SB_to_Cs2 close_aromatic_ring close_aromatic_ring close_aromatic_ring close_aromatic_ring close_aromatic_ring

>  <prot_clashes>  (88) 
5

>  <NBS phar>  (88) 
0.2

>  <NBS_non-phar>  (88) 
0.3905240297317505

>  <NBS>  (88) 
0.5905240297317504

>  <source_stage>  (88) 
scored

>  <source_iter>  (88) 
13

>  <source_parent_mol>  (88) 
0

>  <source_scenario>  (88) 
1 2 3 1 0 0 0 4 6 2 3 0 0

>  <source_rank_in_scored_call>  (88) 
115

>  <source_current_task>  (88) 
no_task

>  <scenario>  (88) 
1 2 3 1 0 0 0 4 6 2 3 0

>  <protected_ring_attachments>  (88) 
3,1,0,2|1,0,2;4,5,0,2|5,0,2

>  <current_task>  (88) 
no_task

>  <rotatable_bond_torsions>  (88) 
1,0,2,7;0,2,7,9;2,7,9,10

$$$$

     RDKit          3D

 16 17  0  0  0  0  0  0  0  0999 V2000
  -27.9190   -6.7460  -30.9110 C   0  0  0  0  0  0  0  0  0  0  0  0
  -27.3160   -6.6040  -32.1260 N   0  0  0  0  0  0  0  0  0  0  0  0
  -27.6910   -7.9810  -30.0860 N   0  0  0  0  0  0  0  0  0  0  0  0
  -27.6560   -5.4060  -32.6340 C   0  0  0  0  0  0  0  0  0  0  0  0
  -28.4740   -4.8130  -31.7180 N   0  0  0  0  0  0  0  0  0  0  0  0
  -28.6270   -5.6230  -30.6860 N   0  0  0  0  0  0  0  0  0  0  0  0
  -29.1790   -5.4540  -29.3150 C   0  0  0  0  0  0  0  0  0  0  0  0
  -28.4730   -9.0160  -30.3090 C   0  0  0  0  0  0  0  0  0  0  0  0
  -29.3140   -9.2690  -31.1750 O   0  0  0  0  0  0  0  0  0  0  0  0
  -28.3680  -10.2680  -29.2830 C   0  0  0  0  0  0  0  0  0  0  0  0
  -28.7930  -11.5210  -29.6300 C   0  0  0  0  0  0  0  0  0  0  0  0
  -27.8200  -10.0910  -28.0260 C   0  0  0  0  0  0  0  0  0  0  0  0
  -28.6890  -12.5910  -28.7670 C   0  0  0  0  0  0  0  0  0  0  0  0
  -28.1350  -12.3650  -27.5240 C   0  0  0  0  0  0  0  0  0  0  0  0
  -27.6920  -11.1240  -27.1230 C   0  0  0  0  0  0  0  0  0  0  0  0
  -28.1270   -4.8650  -28.3980 C   0  0  0  0  0  0  0  0  0  0  0  0
  1  2  2  0
  1  6  1  0
  1  3  1  0
  2  4  1  0
  3  8  1  0
  4  5  2  0
  5  6  1  0
  6  7  1  0
  8  9  2  0
  8 10  1  0
 10 11  2  0
 10 12  1  0
 11 13  1  0
 12 15  2  0
 13 14  2  0
 14 15  1  0
  7 16  1  0
M  END
>  <name>  (89) 
Car Nac Nd0 Car Nac Nac Cs3 Cs2 .=O Car Car Car Car Car Car Cs3

>  <indices>  (89) 
[0, 1, 2]

>  <tasks>  (89) 
probe_placing close_aromatic_ring close_aromatic_ring close_aromatic_ring ring_built build_to_Nac build_to_Nd0 build_DB_to_Cs2 build_SB_to_Cs2 close_aromatic_ring close_aromatic_ring close_aromatic_ring close_aromatic_ring close_aromatic_ring

>  <prot_clashes>  (89) 
6

>  <NBS phar>  (89) 
0.12

>  <NBS_non-phar>  (89) 
0.46468132734298706

>  <NBS>  (89) 
0.5846813273429871

>  <source_stage>  (89) 
scored

>  <source_iter>  (89) 
13

>  <source_parent_mol>  (89) 
0

>  <source_scenario>  (89) 
1 2 3 1 0 0 0 4 6 2 3 0 0

>  <source_rank_in_scored_call>  (89) 
120

>  <source_current_task>  (89) 
no_task

>  <scenario>  (89) 
1 2 3 1 0 0 0 4 6 2 3 0

>  <protected_ring_attachments>  (89) 
3,1,0,2|1,0,2;4,5,0,2|5,0,2

>  <current_task>  (89) 
no_task

>  <rotatable_bond_torsions>  (89) 
1,0,2,7;0,2,7,9;2,7,9,10

$$$$

     RDKit          3D

 16 17  0  0  0  0  0  0  0  0999 V2000
  -27.9160   -6.7260  -30.8230 C   0  0  0  0  0  0  0  0  0  0  0  0
  -27.3070   -6.5570  -32.0310 N   0  0  0  0  0  0  0  0  0  0  0  0
  -27.6900   -7.9790  -30.0230 N   0  0  0  0  0  0  0  0  0  0  0  0
  -27.6470   -5.3490  -32.5140 C   0  0  0  0  0  0  0  0  0  0  0  0
  -28.4710   -4.7790  -31.5910 N   0  0  0  0  0  0  0  0  0  0  0  0
  -28.6280   -5.6110  -30.5770 N   0  0  0  0  0  0  0  0  0  0  0  0
  -29.1880   -5.4730  -29.2060 C   0  0  0  0  0  0  0  0  0  0  0  0
  -28.4680   -9.0110  -30.2730 C   0  0  0  0  0  0  0  0  0  0  0  0
  -29.3040   -9.2470  -31.1490 O   0  0  0  0  0  0  0  0  0  0  0  0
  -28.3660  -10.2850  -29.2740 C   0  0  0  0  0  0  0  0  0  0  0  0
  -28.7860  -11.5300  -29.6500 C   0  0  0  0  0  0  0  0  0  0  0  0
  -27.8260  -10.1330  -28.0100 C   0  0  0  0  0  0  0  0  0  0  0  0
  -28.6840  -12.6180  -28.8100 C   0  0  0  0  0  0  0  0  0  0  0  0
  -28.1380  -12.4180  -27.5590 C   0  0  0  0  0  0  0  0  0  0  0  0
  -27.7000  -11.1850  -27.1290 C   0  0  0  0  0  0  0  0  0  0  0  0
  -28.7270   -4.1810  -28.4310 C   0  0  0  0  0  0  0  0  0  0  0  0
  1  2  2  0
  1  6  1  0
  1  3  1  0
  2  4  1  0
  3  8  1  0
  4  5  2  0
  5  6  1  0
  6  7  1  0
  8  9  2  0
  8 10  1  0
 10 11  2  0
 10 12  1  0
 11 13  1  0
 12 15  2  0
 13 14  2  0
 14 15  1  0
  7 16  1  0
M  END
>  <name>  (90) 
Car Nac Nd0 Car Nac Nac Cs3 Cs2 .=O Car Car Car Car Car Car Cs3

>  <indices>  (90) 
[0, 1, 2]

>  <tasks>  (90) 
probe_placing close_aromatic_ring close_aromatic_ring close_aromatic_ring ring_built build_to_Nac build_to_Nd0 build_DB_to_Cs2 build_SB_to_Cs2 close_aromatic_ring close_aromatic_ring close_aromatic_ring close_aromatic_ring close_aromatic_ring

>  <prot_clashes>  (90) 
3

>  <NBS phar>  (90) 
0.12

>  <NBS_non-phar>  (90) 
0.45678237080574036

>  <NBS>  (90) 
0.5767823708057404

>  <source_stage>  (90) 
scored

>  <source_iter>  (90) 
13

>  <source_parent_mol>  (90) 
0

>  <source_scenario>  (90) 
1 2 3 1 0 0 0 4 6 2 3 0 0

>  <source_rank_in_scored_call>  (90) 
124

>  <source_current_task>  (90) 
no_task

>  <scenario>  (90) 
1 2 3 1 0 0 0 4 6 2 3 0

>  <protected_ring_attachments>  (90) 
3,1,0,2|1,0,2;4,5,0,2|5,0,2

>  <current_task>  (90) 
no_task

>  <rotatable_bond_torsions>  (90) 
1,0,2,7;0,2,7,9;2,7,9,10

$$$$

     RDKit          3D

 16 17  0  0  0  0  0  0  0  0999 V2000
  -27.9160   -6.7880  -30.8850 C   0  0  0  0  0  0  0  0  0  0  0  0
  -27.3100   -6.5570  -32.0850 N   0  0  0  0  0  0  0  0  0  0  0  0
  -27.6860   -8.0780  -30.1490 N   0  0  0  0  0  0  0  0  0  0  0  0
  -27.6550   -5.3280  -32.5060 C   0  0  0  0  0  0  0  0  0  0  0  0
  -28.4780   -4.8060  -31.5540 N   0  0  0  0  0  0  0  0  0  0  0  0
  -28.6310   -5.6880  -30.5830 N   0  0  0  0  0  0  0  0  0  0  0  0
  -29.1880   -5.6200  -29.2050 C   0  0  0  0  0  0  0  0  0  0  0  0
  -28.4610   -9.0990  -30.4490 C   0  0  0  0  0  0  0  0  0  0  0  0
  -29.2980   -9.2930  -31.3330 O   0  0  0  0  0  0  0  0  0  0  0  0
  -28.3540  -10.4200  -29.5140 C   0  0  0  0  0  0  0  0  0  0  0  0
  -28.7720  -11.6470  -29.9510 C   0  0  0  0  0  0  0  0  0  0  0  0
  -27.8110  -10.3310  -28.2460 C   0  0  0  0  0  0  0  0  0  0  0  0
  -28.6650  -12.7750  -29.1660 C   0  0  0  0  0  0  0  0  0  0  0  0
  -28.1160  -12.6360  -27.9090 C   0  0  0  0  0  0  0  0  0  0  0  0
  -27.6800  -11.4250  -27.4180 C   0  0  0  0  0  0  0  0  0  0  0  0
  -29.0430   -4.1850  -28.4470 C   0  0  0  0  0  0  0  0  0  0  0  0
  1  2  2  0
  1  6  1  0
  1  3  1  0
  2  4  1  0
  3  8  1  0
  4  5  2  0
  5  6  1  0
  6  7  1  0
  8  9  2  0
  8 10  1  0
 10 11  2  0
 10 12  1  0
 11 13  1  0
 12 15  2  0
 13 14  2  0
 14 15  1  0
  7 16  1  0
M  END
>  <name>  (91) 
Car Nac Nd0 Car Nac Nac Cs3 Cs2 .=O Car Car Car Car Car Car Cs3

>  <indices>  (91) 
[0, 1, 2]

>  <tasks>  (91) 
probe_placing close_aromatic_ring close_aromatic_ring close_aromatic_ring ring_built build_to_Nac build_to_Nd0 build_DB_to_Cs2 build_SB_to_Cs2 close_aromatic_ring close_aromatic_ring close_aromatic_ring close_aromatic_ring close_aromatic_ring

>  <prot_clashes>  (91) 
5

>  <NBS phar>  (91) 
0.12

>  <NBS_non-phar>  (91) 
0.45107609033584595

>  <NBS>  (91) 
0.5710760903358459

>  <source_stage>  (91) 
scored

>  <source_iter>  (91) 
13

>  <source_parent_mol>  (91) 
0

>  <source_scenario>  (91) 
1 2 3 1 0 0 0 4 6 2 3 0 0

>  <source_rank_in_scored_call>  (91) 
126

>  <source_current_task>  (91) 
no_task

>  <scenario>  (91) 
1 2 3 1 0 0 0 4 6 2 3 0

>  <protected_ring_attachments>  (91) 
3,1,0,2|1,0,2;4,5,0,2|5,0,2

>  <current_task>  (91) 
no_task

>  <rotatable_bond_torsions>  (91) 
1,0,2,7;0,2,7,9;2,7,9,10

$$$$

     RDKit          3D

 16 17  0  0  0  0  0  0  0  0999 V2000
  -28.0510   -6.5800  -30.3770 C   0  0  0  0  0  0  0  0  0  0  0  0
  -27.5120   -6.9370  -31.5780 N   0  0  0  0  0  0  0  0  0  0  0  0
  -27.8190   -7.4250  -29.1560 N   0  0  0  0  0  0  0  0  0  0  0  0
  -27.8400   -6.0020  -32.4870 C   0  0  0  0  0  0  0  0  0  0  0  0
  -28.5850   -5.0670  -31.8320 N   0  0  0  0  0  0  0  0  0  0  0  0
  -28.7080   -5.4200  -30.5660 N   0  0  0  0  0  0  0  0  0  0  0  0
  -29.1770   -4.7200  -29.3400 C   0  0  0  0  0  0  0  0  0  0  0  0
  -28.6450   -8.4260  -28.9400 C   0  0  0  0  0  0  0  0  0  0  0  0
  -29.5410   -8.9420  -29.6120 O   0  0  0  0  0  0  0  0  0  0  0  0
  -28.5250   -9.2040  -27.5220 C   0  0  0  0  0  0  0  0  0  0  0  0
  -29.0100  -10.4710  -27.3520 C   0  0  0  0  0  0  0  0  0  0  0  0
  -27.9020   -8.5950  -26.4480 C   0  0  0  0  0  0  0  0  0  0  0  0
  -28.8930  -11.1420  -26.1530 C   0  0  0  0  0  0  0  0  0  0  0  0
  -28.2640  -10.4940  -25.1110 C   0  0  0  0  0  0  0  0  0  0  0  0
  -27.7580   -9.2180  -25.2270 C   0  0  0  0  0  0  0  0  0  0  0  0
  -28.2430   -3.6910  -28.6460 C   0  0  0  0  0  0  0  0  0  0  0  0
  1  2  2  0
  1  6  1  0
  1  3  1  0
  2  4  1  0
  3  8  1  0
  4  5  2  0
  5  6  1  0
  6  7  1  0
  8  9  2  0
  8 10  1  0
 10 11  2  0
 10 12  1  0
 11 13  1  0
 12 15  2  0
 13 14  2  0
 14 15  1  0
  7 16  1  0
M  END
>  <name>  (92) 
Car Nac Nd0 Car Nac Nac Cs3 Cs2 .=O Car Car Car Car Car Car Cs3

>  <indices>  (92) 
[0, 1, 2]

>  <tasks>  (92) 
probe_placing close_aromatic_ring close_aromatic_ring close_aromatic_ring ring_built build_to_Nac build_to_Nd0 build_DB_to_Cs2 build_SB_to_Cs2 close_aromatic_ring close_aromatic_ring close_aromatic_ring close_aromatic_ring close_aromatic_ring

>  <prot_clashes>  (92) 
9

>  <NBS phar>  (92) 
0.04

>  <NBS_non-phar>  (92) 
0.31474196910858154

>  <NBS>  (92) 
0.3547419691085815

>  <source_stage>  (92) 
scored

>  <source_iter>  (92) 
13

>  <source_parent_mol>  (92) 
0

>  <source_scenario>  (92) 
1 2 3 1 0 0 0 4 6 2 3 0 0

>  <source_rank_in_scored_call>  (92) 
147

>  <source_current_task>  (92) 
no_task

>  <scenario>  (92) 
1 2 3 1 0 0 0 4 6 2 3 0

>  <protected_ring_attachments>  (92) 
3,1,0,2|1,0,2;4,5,0,2|5,0,2

>  <current_task>  (92) 
no_task

>  <rotatable_bond_torsions>  (92) 
1,0,2,7;0,2,7,9;2,7,9,10

$$$$

     RDKit          3D

 15 16  0  0  0  0  0  0  0  0999 V2000
  -27.8900   -6.9040  -30.9430 C   0  0  0  0  0  0  0  0  0  0  0  0
  -27.2840   -6.6410  -32.1340 N   0  0  0  0  0  0  0  0  0  0  0  0
  -27.7400   -8.2520  -30.2930 N   0  0  0  0  0  0  0  0  0  0  0  0
  -27.5480   -5.3670  -32.4750 C   0  0  0  0  0  0  0  0  0  0  0  0
  -28.3190   -4.8510  -31.4770 N   0  0  0  0  0  0  0  0  0  0  0  0
  -28.5220   -5.7790  -30.5590 N   0  0  0  0  0  0  0  0  0  0  0  0
  -29.0550   -5.7610  -29.1720 C   0  0  0  0  0  0  0  0  0  0  0  0
  -28.5890   -9.1950  -30.6410 C   0  0  0  0  0  0  0  0  0  0  0  0
  -29.4480   -9.2750  -31.5200 O   0  0  0  0  0  0  0  0  0  0  0  0
  -28.4790  -10.6550  -29.7900 C   0  0  0  0  0  0  0  0  0  0  0  0
  -29.1230  -11.7680  -30.3130 C   0  0  0  0  0  0  0  0  0  0  0  0
  -29.1140  -12.9760  -29.6310 C   0  0  0  0  0  0  0  0  0  0  0  0
  -28.4420  -13.0160  -28.4240 C   0  0  0  0  0  0  0  0  0  0  0  0
  -27.8110  -10.7030  -28.5840 C   0  0  0  0  0  0  0  0  0  0  0  0
  -27.7960  -11.9000  -27.8980 C   0  0  0  0  0  0  0  0  0  0  0  0
  1  2  2  0
  1  6  1  0
  1  3  1  0
  2  4  1  0
  3  8  1  0
  4  5  2  0
  5  6  1  0
  6  7  1  0
  8  9  2  0
  8 10  1  0
 10 11  2  0
 10 14  1  0
 11 12  1  0
 12 13  2  0
 13 15  1  0
 14 15  2  0
M  END
>  <name>  (93) 
Car Nac Nd0 Car Nac Nac Cs3 Cs2 .=O Car Car Car Car Car Car

>  <indices>  (93) 
[0, 1, 2]

>  <tasks>  (93) 
probe_placing close_aromatic_ring close_aromatic_ring close_aromatic_ring ring_built build_to_Nac build_to_Nd0 build_DB_to_Cs2 build_SB_to_Cs2 close_aromatic_ring close_aromatic_ring close_aromatic_ring close_aromatic_ring

>  <prot_clashes>  (93) 
2

>  <NBS phar>  (93) 
0.2

>  <NBS_non-phar>  (93) 
0.560915184020996

>  <NBS>  (93) 
0.760915184020996

>  <source_stage>  (93) 
scored

>  <source_iter>  (93) 
12

>  <source_parent_mol>  (93) 
0

>  <source_scenario>  (93) 
1 2 3 1 0 0 0 4 6 4 3 0

>  <source_rank_in_scored_call>  (93) 
0

>  <source_current_task>  (93) 
close_aromatic_ring

>  <scenario>  (93) 
1 2 3 1 0 0 0 4 6 4 3

>  <protected_ring_attachments>  (93) 
3,1,0,2|1,0,2;4,5,0,2|5,0,2

>  <current_task>  (93) 
no_task

>  <rotatable_bond_torsions>  (93) 
1,0,2,7;0,2,7,9;2,7,9,10;7,9,10,11

$$$$

     RDKit          3D

 15 16  0  0  0  0  0  0  0  0999 V2000
  -28.0030   -7.3470  -30.9440 C   0  0  0  0  0  0  0  0  0  0  0  0
  -27.4180   -6.9630  -32.1130 N   0  0  0  0  0  0  0  0  0  0  0  0
  -27.8290   -8.7500  -30.4300 N   0  0  0  0  0  0  0  0  0  0  0  0
  -27.7010   -5.6660  -32.3240 C   0  0  0  0  0  0  0  0  0  0  0  0
  -28.4620   -5.2570  -31.2690 N   0  0  0  0  0  0  0  0  0  0  0  0
  -28.6410   -6.2720  -30.4430 N   0  0  0  0  0  0  0  0  0  0  0  0
  -29.1550   -6.3960  -29.0530 C   0  0  0  0  0  0  0  0  0  0  0  0
  -28.6750   -9.6650  -30.8570 C   0  0  0  0  0  0  0  0  0  0  0  0
  -29.5460   -9.6690  -31.7280 O   0  0  0  0  0  0  0  0  0  0  0  0
  -28.5360  -11.1430  -30.1830 C   0  0  0  0  0  0  0  0  0  0  0  0
  -29.1260  -12.2560  -30.7490 C   0  0  0  0  0  0  0  0  0  0  0  0
  -29.1100  -13.5040  -30.1590 C   0  0  0  0  0  0  0  0  0  0  0  0
  -28.4730  -13.6470  -28.9440 C   0  0  0  0  0  0  0  0  0  0  0  0
  -27.8700  -12.5320  -28.3540 C   0  0  0  0  0  0  0  0  0  0  0  0
  -27.8910  -11.2890  -28.9510 C   0  0  0  0  0  0  0  0  0  0  0  0
  1  2  2  0
  1  6  1  0
  1  3  1  0
  2  4  1  0
  3  8  1  0
  4  5  2  0
  5  6  1  0
  6  7  1  0
  8  9  2  0
  8 10  1  0
 10 11  2  0
 10 15  1  0
 11 12  1  0
 12 13  2  0
 13 14  1  0
 14 15  2  0
M  END
>  <name>  (94) 
Car Nac Nd0 Car Nac Nac Cs3 Cs2 .=O Car Car Car Car Car Car

>  <indices>  (94) 
[0, 1, 2]

>  <tasks>  (94) 
probe_placing close_aromatic_ring close_aromatic_ring close_aromatic_ring ring_built build_to_Nac build_to_Nd0 build_DB_to_Cs2 build_SB_to_Cs2 close_aromatic_ring close_aromatic_ring close_aromatic_ring close_aromatic_ring

>  <prot_clashes>  (94) 
4

>  <NBS phar>  (94) 
0.2

>  <NBS_non-phar>  (94) 
0.5683807373046875

>  <NBS>  (94) 
0.7683807373046876

>  <source_stage>  (94) 
scored

>  <source_iter>  (94) 
12

>  <source_parent_mol>  (94) 
2

>  <source_scenario>  (94) 
1 2 3 1 0 0 0 4 6 4 3 2

>  <source_rank_in_scored_call>  (94) 
0

>  <source_current_task>  (94) 
close_aromatic_ring

>  <scenario>  (94) 
1 2 3 1 0 0 0 4 6 4 3

>  <protected_ring_attachments>  (94) 
3,1,0,2|1,0,2;4,5,0,2|5,0,2

>  <current_task>  (94) 
no_task

>  <rotatable_bond_torsions>  (94) 
1,0,2,7;0,2,7,9;2,7,9,10;7,9,10,11;10,11,12,13

$$$$

     RDKit          3D

 13 14  0  0  0  0  0  0  0  0999 V2000
  -28.1180   -7.1310  -31.1670 C   0  0  0  0  0  0  0  0  0  0  0  0
  -27.7770   -6.7670  -32.4360 N   0  0  0  0  0  0  0  0  0  0  0  0
  -28.1640   -8.5820  -30.7760 N   0  0  0  0  0  0  0  0  0  0  0  0
  -27.7800   -5.4260  -32.5100 C   0  0  0  0  0  0  0  0  0  0  0  0
  -28.1260   -4.9680  -31.2750 N   0  0  0  0  0  0  0  0  0  0  0  0
  -28.3280   -5.9980  -30.4710 N   0  0  0  0  0  0  0  0  0  0  0  0
  -28.4840   -6.1470  -29.0000 C   0  0  0  0  0  0  0  0  0  0  0  0
  -28.1550   -9.7810  -29.8510 C   0  0  1  0  0  0  0  0  0  0  0  0
  -27.6940   -9.4790  -28.4310 C   0  0  0  0  0  0  0  0  0  0  0  0
  -27.6880  -10.7770  -27.6410 C   0  0  0  0  0  0  0  0  0  0  0  0
  -28.9630  -11.3300  -27.6090 O   0  0  0  0  0  0  0  0  0  0  0  0
  -29.4520  -11.6080  -28.8790 C   0  0  0  0  0  0  0  0  0  0  0  0
  -29.5400  -10.3570  -29.7260 C   0  0  0  0  0  0  0  0  0  0  0  0
  1  2  2  0
  1  3  1  0
  1  6  1  0
  2  4  1  0
  8  3  1  6
  4  5  2  0
  5  6  1  0
  6  7  1  0
  8 13  1  0
  8  9  1  0
  9 10  1  0
 10 11  1  0
 11 12  1  0
 12 13  1  0
M  END
>  <name>  (95) 
Car Nac Nd0 Car Nac Nac Cs3 C3r C3r C3r O_a C3r C3r

>  <indices>  (95) 
[0, 1, 2]

>  <tasks>  (95) 
probe_placing close_aromatic_ring close_aromatic_ring close_aromatic_ring ring_built build_to_Nac build_to_Nd0 close_aliphatic_ring close_aliphatic_ring close_aliphatic_ring close_aliphatic_ring

>  <prot_clashes>  (95) 
2

>  <NBS phar>  (95) 
0.12

>  <NBS_non-phar>  (95) 
0.523348514850323

>  <NBS>  (95) 
0.643348514850323

>  <source_stage>  (95) 
scored

>  <source_iter>  (95) 
10

>  <source_parent_mol>  (95) 
3

>  <source_scenario>  (95) 
1 2 3 1 0 9 5 1 3 3

>  <source_rank_in_scored_call>  (95) 
0

>  <source_current_task>  (95) 
close_aliphatic_ring

>  <scenario>  (95) 
1 2 3 1 0 9 5 1 3

>  <protected_ring_attachments>  (95) 
3,1,0,2|1,0,2;4,5,0,2|5,0,2

>  <current_task>  (95) 
no_task

>  <rotatable_bond_torsions>  (95) 
1,0,2,7;0,2,7,8;2,7,8,9;7,8,9,10;8,9,10,11

$$$$

     RDKit          3D

 14 15  0  0  0  0  0  0  0  0999 V2000
  -28.2370   -6.8770  -31.1410 C   0  0  0  0  0  0  0  0  0  0  0  0
  -28.0610   -6.7630  -32.4890 N   0  0  0  0  0  0  0  0  0  0  0  0
  -28.3930   -8.2300  -30.5040 N   0  0  0  0  0  0  0  0  0  0  0  0
  -27.9160   -5.4620  -32.7910 C   0  0  0  0  0  0  0  0  0  0  0  0
  -28.0040   -4.7770  -31.6170 N   0  0  0  0  0  0  0  0  0  0  0  0
  -28.1970   -5.6330  -30.6280 N   0  0  0  0  0  0  0  0  0  0  0  0
  -28.1340   -5.5330  -29.1460 C   0  0  0  0  0  0  0  0  0  0  0  0
  -28.3790   -9.2630  -29.3970 C   0  0  1  0  0  0  0  0  0  0  0  0
  -27.6660   -8.8180  -28.1270 C   0  0  0  0  0  0  0  0  0  0  0  0
  -27.6890   -9.9680  -27.1350 C   0  0  0  0  0  0  0  0  0  0  0  0
  -28.9990  -10.3210  -26.8330 O   0  0  0  0  0  0  0  0  0  0  0  0
  -29.7130  -10.7160  -27.9570 C   0  0  0  0  0  0  0  0  0  0  0  0
  -29.7850   -9.6090  -28.9860 C   0  0  0  0  0  0  0  0  0  0  0  0
  -29.5620   -5.4790  -28.6610 C   0  0  0  0  0  0  0  0  0  0  0  0
  1  2  2  0
  1  6  1  0
  1  3  1  0
  2  4  1  0
  8  3  1  6
  4  5  2  0
  5  6  1  0
  6  7  1  0
  8 13  1  0
  8  9  1  0
  9 10  1  0
 10 11  1  0
 11 12  1  0
 12 13  1  0
  7 14  1  0
M  END
>  <name>  (96) 
Car Nac Nd0 Car Nac Nac Cs3 C3r C3r C3r O_a C3r C3r Cs3

>  <indices>  (96) 
[0, 1, 2]

>  <tasks>  (96) 
probe_placing close_aromatic_ring close_aromatic_ring close_aromatic_ring ring_built build_to_Nac build_to_Nd0 close_aliphatic_ring close_aliphatic_ring close_aliphatic_ring close_aliphatic_ring close_aliphatic_ring

>  <prot_clashes>  (96) 
10

>  <NBS phar>  (96) 
0.22000000000000003

>  <NBS_non-phar>  (96) 
0.5433549540383475

>  <NBS>  (96) 
0.7633549540383475

>  <source_stage>  (96) 
scored

>  <source_iter>  (96) 
11

>  <source_parent_mol>  (96) 
0

>  <source_scenario>  (96) 
1 2 3 1 0 9 5 1 3 3 0

>  <source_rank_in_scored_call>  (96) 
1

>  <source_current_task>  (96) 
no_task

>  <scenario>  (96) 
1 2 3 1 0 9 5 1 3 3

>  <protected_ring_attachments>  (96) 
3,1,0,2|1,0,2;4,5,0,2|5,0,2;9,8,7,2|8,7,2;11,12,7,2|12,7,2

>  <current_task>  (96) 
no_task

>  <rotatable_bond_torsions>  (96) 
1,0,2,7;0,2,7,8

$$$$

     RDKit          3D

 14 15  0  0  0  0  0  0  0  0999 V2000
  -28.2650   -6.9020  -31.1350 C   0  0  0  0  0  0  0  0  0  0  0  0
  -28.0600   -6.7880  -32.4780 N   0  0  0  0  0  0  0  0  0  0  0  0
  -28.4630   -8.2530  -30.5070 N   0  0  0  0  0  0  0  0  0  0  0  0
  -27.8800   -5.4900  -32.7730 C   0  0  0  0  0  0  0  0  0  0  0  0
  -27.9760   -4.8070  -31.5990 N   0  0  0  0  0  0  0  0  0  0  0  0
  -28.2070   -5.6610  -30.6170 N   0  0  0  0  0  0  0  0  0  0  0  0
  -28.1710   -5.5670  -29.1330 C   0  0  0  0  0  0  0  0  0  0  0  0
  -28.4950   -9.2900  -29.4030 C   0  0  1  0  0  0  0  0  0  0  0  0
  -27.7970   -8.8660  -28.1180 C   0  0  0  0  0  0  0  0  0  0  0  0
  -27.8650  -10.0180  -27.1300 C   0  0  0  0  0  0  0  0  0  0  0  0
  -29.1890  -10.3430  -26.8560 O   0  0  0  0  0  0  0  0  0  0  0  0
  -29.8900  -10.7180  -27.9950 C   0  0  0  0  0  0  0  0  0  0  0  0
  -29.9160   -9.6060  -29.0210 C   0  0  0  0  0  0  0  0  0  0  0  0
  -29.5630   -5.1490  -28.6380 C   0  0  0  0  0  0  0  0  0  0  0  0
  1  2  2  0
  1  6  1  0
  1  3  1  0
  2  4  1  0
  8  3  1  6
  4  5  2  0
  5  6  1  0
  6  7  1  0
  8 13  1  0
  8  9  1  0
  9 10  1  0
 10 11  1  0
 11 12  1  0
 12 13  1  0
  7 14  1  0
M  END
>  <name>  (97) 
Car Nac Nd0 Car Nac Nac Cs3 C3r C3r C3r O_a C3r C3r Cs3

>  <indices>  (97) 
[0, 1, 2]

>  <tasks>  (97) 
probe_placing close_aromatic_ring close_aromatic_ring close_aromatic_ring ring_built build_to_Nac build_to_Nd0 close_aliphatic_ring close_aliphatic_ring close_aliphatic_ring close_aliphatic_ring close_aliphatic_ring

>  <prot_clashes>  (97) 
11

>  <NBS phar>  (97) 
0.24000000000000005

>  <NBS_non-phar>  (97) 
0.5188132013593402

>  <NBS>  (97) 
0.7588132013593403

>  <source_stage>  (97) 
scored

>  <source_iter>  (97) 
11

>  <source_parent_mol>  (97) 
0

>  <source_scenario>  (97) 
1 2 3 1 0 9 5 1 3 3 0

>  <source_rank_in_scored_call>  (97) 
3

>  <source_current_task>  (97) 
no_task

>  <scenario>  (97) 
1 2 3 1 0 9 5 1 3 3

>  <protected_ring_attachments>  (97) 
3,1,0,2|1,0,2;4,5,0,2|5,0,2;9,8,7,2|8,7,2;11,12,7,2|12,7,2

>  <current_task>  (97) 
no_task

>  <rotatable_bond_torsions>  (97) 
1,0,2,7;0,2,7,8

$$$$

     RDKit          3D

 14 15  0  0  0  0  0  0  0  0999 V2000
  -28.2130   -6.9260  -31.1160 C   0  0  0  0  0  0  0  0  0  0  0  0
  -27.9870   -6.6630  -32.4350 N   0  0  0  0  0  0  0  0  0  0  0  0
  -28.3340   -8.3440  -30.6300 N   0  0  0  0  0  0  0  0  0  0  0  0
  -27.8880   -5.3330  -32.5930 C   0  0  0  0  0  0  0  0  0  0  0  0
  -28.0540   -4.7800  -31.3600 N   0  0  0  0  0  0  0  0  0  0  0  0
  -28.2480   -5.7430  -30.4750 N   0  0  0  0  0  0  0  0  0  0  0  0
  -28.2500   -5.7970  -28.9890 C   0  0  0  0  0  0  0  0  0  0  0  0
  -28.3210   -9.4870  -29.6370 C   0  0  1  0  0  0  0  0  0  0  0  0
  -27.6800   -9.1500  -28.2970 C   0  0  0  0  0  0  0  0  0  0  0  0
  -27.6920  -10.3990  -27.4310 C   0  0  0  0  0  0  0  0  0  0  0  0
  -28.9970  -10.8330  -27.2270 O   0  0  0  0  0  0  0  0  0  0  0  0
  -29.6470  -11.1350  -28.4170 C   0  0  0  0  0  0  0  0  0  0  0  0
  -29.7260   -9.9290  -29.3280 C   0  0  0  0  0  0  0  0  0  0  0  0
  -29.5650   -5.0980  -28.5320 C   0  0  0  0  0  0  0  0  0  0  0  0
  1  2  2  0
  1  3  1  0
  1  6  1  0
  2  4  1  0
  8  3  1  6
  4  5  2  0
  5  6  1  0
  6  7  1  0
  8 13  1  0
  8  9  1  0
  9 10  1  0
 10 11  1  0
 11 12  1  0
 12 13  1  0
  7 14  1  0
M  END
>  <name>  (98) 
Car Nac Nd0 Car Nac Nac Cs3 C3r C3r C3r O_a C3r C3r Cs3

>  <indices>  (98) 
[0, 1, 2]

>  <tasks>  (98) 
probe_placing close_aromatic_ring close_aromatic_ring close_aromatic_ring ring_built build_to_Nac build_to_Nd0 close_aliphatic_ring close_aliphatic_ring close_aliphatic_ring close_aliphatic_ring close_aliphatic_ring

>  <prot_clashes>  (98) 
6

>  <NBS phar>  (98) 
0.24000000000000005

>  <NBS_non-phar>  (98) 
0.518374136516026

>  <NBS>  (98) 
0.7583741365160261

>  <source_stage>  (98) 
scored

>  <source_iter>  (98) 
11

>  <source_parent_mol>  (98) 
0

>  <source_scenario>  (98) 
1 2 3 1 0 9 5 1 3 3 0

>  <source_rank_in_scored_call>  (98) 
4

>  <source_current_task>  (98) 
no_task

>  <scenario>  (98) 
1 2 3 1 0 9 5 1 3 3

>  <protected_ring_attachments>  (98) 
3,1,0,2|1,0,2;4,5,0,2|5,0,2;9,8,7,2|8,7,2;11,12,7,2|12,7,2

>  <current_task>  (98) 
no_task

>  <rotatable_bond_torsions>  (98) 
1,0,2,7;0,2,7,8

$$$$

     RDKit          3D

 14 15  0  0  0  0  0  0  0  0999 V2000
  -28.2550   -6.8630  -31.1400 C   0  0  0  0  0  0  0  0  0  0  0  0
  -28.0560   -6.7430  -32.4840 N   0  0  0  0  0  0  0  0  0  0  0  0
  -28.4100   -8.2190  -30.5110 N   0  0  0  0  0  0  0  0  0  0  0  0
  -27.9170   -5.4400  -32.7790 C   0  0  0  0  0  0  0  0  0  0  0  0
  -28.0310   -4.7600  -31.6050 N   0  0  0  0  0  0  0  0  0  0  0  0
  -28.2340   -5.6210  -30.6220 N   0  0  0  0  0  0  0  0  0  0  0  0
  -28.1980   -5.5250  -29.1390 C   0  0  0  0  0  0  0  0  0  0  0  0
  -28.4080   -9.2560  -29.4070 C   0  0  1  0  0  0  0  0  0  0  0  0
  -27.7210   -8.8100  -28.1230 C   0  0  0  0  0  0  0  0  0  0  0  0
  -27.7520   -9.9640  -27.1350 C   0  0  0  0  0  0  0  0  0  0  0  0
  -29.0640  -10.3290  -26.8580 O   0  0  0  0  0  0  0  0  0  0  0  0
  -29.7550  -10.7250  -27.9960 C   0  0  0  0  0  0  0  0  0  0  0  0
  -29.8180   -9.6150  -29.0220 C   0  0  0  0  0  0  0  0  0  0  0  0
  -29.5620   -5.1040  -28.6590 C   0  0  0  0  0  0  0  0  0  0  0  0
  1  2  2  0
  1  6  1  0
  1  3  1  0
  2  4  1  0
  8  3  1  6
  4  5  2  0
  5  6  1  0
  6  7  1  0
  8 13  1  0
  8  9  1  0
  9 10  1  0
 10 11  1  0
 11 12  1  0
 12 13  1  0
  7 14  1  0
M  END
>  <name>  (99) 
Car Nac Nd0 Car Nac Nac Cs3 C3r C3r C3r O_a C3r C3r Cs3

>  <indices>  (99) 
[0, 1, 2]

>  <tasks>  (99) 
probe_placing close_aromatic_ring close_aromatic_ring close_aromatic_ring ring_built build_to_Nac build_to_Nd0 close_aliphatic_ring close_aliphatic_ring close_aliphatic_ring close_aliphatic_ring close_aliphatic_ring

>  <prot_clashes>  (99) 
10

>  <NBS phar>  (99) 
0.22000000000000003

>  <NBS_non-phar>  (99) 
0.5214603628431048

>  <NBS>  (99) 
0.7414603628431049

>  <source_stage>  (99) 
scored

>  <source_iter>  (99) 
11

>  <source_parent_mol>  (99) 
0

>  <source_scenario>  (99) 
1 2 3 1 0 9 5 1 3 3 0

>  <source_rank_in_scored_call>  (99) 
7

>  <source_current_task>  (99) 
no_task

>  <scenario>  (99) 
1 2 3 1 0 9 5 1 3 3

>  <protected_ring_attachments>  (99) 
3,1,0,2|1,0,2;4,5,0,2|5,0,2;9,8,7,2|8,7,2;11,12,7,2|12,7,2

>  <current_task>  (99) 
no_task

>  <rotatable_bond_torsions>  (99) 
1,0,2,7;0,2,7,8

$$$$

     RDKit          3D

 14 15  0  0  0  0  0  0  0  0999 V2000
  -28.1850   -6.7960  -30.8240 C   0  0  0  0  0  0  0  0  0  0  0  0
  -27.6520   -6.7390  -32.0780 N   0  0  0  0  0  0  0  0  0  0  0  0
  -28.1890   -8.0880  -30.0550 N   0  0  0  0  0  0  0  0  0  0  0  0
  -27.7440   -5.4750  -32.5230 C   0  0  0  0  0  0  0  0  0  0  0  0
  -28.3380   -4.7550  -31.5320 N   0  0  0  0  0  0  0  0  0  0  0  0
  -28.6010   -5.5540  -30.5120 N   0  0  0  0  0  0  0  0  0  0  0  0
  -29.0050   -5.3300  -29.0990 C   0  0  0  0  0  0  0  0  0  0  0  0
  -28.2530   -8.9910  -28.8420 C   0  0  1  0  0  0  0  0  0  0  0  0
  -28.0770   -8.2730  -27.5100 C   0  0  0  0  0  0  0  0  0  0  0  0
  -28.1130   -9.3080  -26.3980 C   0  0  0  0  0  0  0  0  0  0  0  0
  -29.3270   -9.9840  -26.4050 O   0  0  0  0  0  0  0  0  0  0  0  0
  -29.5590  -10.6430  -27.6050 C   0  0  0  0  0  0  0  0  0  0  0  0
  -29.5900   -9.6790  -28.7710 C   0  0  0  0  0  0  0  0  0  0  0  0
  -28.4720   -3.9500  -28.4150 C   0  0  0  0  0  0  0  0  0  0  0  0
  1  2  2  0
  1  6  1  0
  1  3  1  0
  2  4  1  0
  8  3  1  6
  4  5  2  0
  5  6  1  0
  6  7  1  0
  8 13  1  0
  8  9  1  0
  9 10  1  0
 10 11  1  0
 11 12  1  0
 12 13  1  0
  7 14  1  0
M  END
>  <name>  (100) 
Car Nac Nd0 Car Nac Nac Cs3 C3r C3r C3r O_a C3r C3r Cs3

>  <indices>  (100) 
[0, 1, 2]

>  <tasks>  (100) 
probe_placing close_aromatic_ring close_aromatic_ring close_aromatic_ring ring_built build_to_Nac build_to_Nd0 close_aliphatic_ring close_aliphatic_ring close_aliphatic_ring close_aliphatic_ring close_aliphatic_ring

>  <prot_clashes>  (100) 
3

>  <NBS phar>  (100) 
0.12

>  <NBS_non-phar>  (100) 
0.591897828238351

>  <NBS>  (100) 
0.711897828238351

>  <source_stage>  (100) 
scored

>  <source_iter>  (100) 
11

>  <source_parent_mol>  (100) 
0

>  <source_scenario>  (100) 
1 2 3 1 0 9 5 1 3 3 0

>  <source_rank_in_scored_call>  (100) 
16

>  <source_current_task>  (100) 
no_task

>  <scenario>  (100) 
1 2 3 1 0 9 5 1 3 3

>  <protected_ring_attachments>  (100) 
3,1,0,2|1,0,2;4,5,0,2|5,0,2;9,8,7,2|8,7,2;11,12,7,2|12,7,2

>  <current_task>  (100) 
no_task

>  <rotatable_bond_torsions>  (100) 
1,0,2,7;0,2,7,8

$$$$

     RDKit          3D

 14 15  0  0  0  0  0  0  0  0999 V2000
  -28.2050   -6.8580  -30.8730 C   0  0  0  0  0  0  0  0  0  0  0  0
  -27.6900   -6.7770  -32.1320 N   0  0  0  0  0  0  0  0  0  0  0  0
  -28.2710   -8.1800  -30.1590 N   0  0  0  0  0  0  0  0  0  0  0  0
  -27.7170   -5.4920  -32.5220 C   0  0  0  0  0  0  0  0  0  0  0  0
  -28.2530   -4.7830  -31.4910 N   0  0  0  0  0  0  0  0  0  0  0  0
  -28.5460   -5.6100  -30.5010 N   0  0  0  0  0  0  0  0  0  0  0  0
  -28.9140   -5.4240  -29.0730 C   0  0  0  0  0  0  0  0  0  0  0  0
  -28.3680   -9.1300  -28.9840 C   0  0  1  0  0  0  0  0  0  0  0  0
  -28.1300   -8.4810  -27.6260 C   0  0  0  0  0  0  0  0  0  0  0  0
  -28.2080   -9.5580  -26.5580 C   0  0  0  0  0  0  0  0  0  0  0  0
  -29.4590  -10.1650  -26.5710 O   0  0  0  0  0  0  0  0  0  0  0  0
  -29.7470  -10.7570  -27.7940 C   0  0  0  0  0  0  0  0  0  0  0  0
  -29.7410   -9.7430  -28.9180 C   0  0  0  0  0  0  0  0  0  0  0  0
  -28.7590   -3.9770  -28.5940 C   0  0  0  0  0  0  0  0  0  0  0  0
  1  2  2  0
  1  6  1  0
  1  3  1  0
  2  4  1  0
  8  3  1  6
  4  5  2  0
  5  6  1  0
  6  7  1  0
  8 13  1  0
  8  9  1  0
  9 10  1  0
 10 11  1  0
 11 12  1  0
 12 13  1  0
  7 14  1  0
M  END
>  <name>  (101) 
Car Nac Nd0 Car Nac Nac Cs3 C3r C3r C3r O_a C3r C3r Cs3

>  <indices>  (101) 
[0, 1, 2]

>  <tasks>  (101) 
probe_placing close_aromatic_ring close_aromatic_ring close_aromatic_ring ring_built build_to_Nac build_to_Nd0 close_aliphatic_ring close_aliphatic_ring close_aliphatic_ring close_aliphatic_ring close_aliphatic_ring

>  <prot_clashes>  (101) 
3

>  <NBS phar>  (101) 
0.1

>  <NBS_non-phar>  (101) 
0.5714318411690849

>  <NBS>  (101) 
0.6714318411690848

>  <source_stage>  (101) 
scored

>  <source_iter>  (101) 
11

>  <source_parent_mol>  (101) 
0

>  <source_scenario>  (101) 
1 2 3 1 0 9 5 1 3 3 0

>  <source_rank_in_scored_call>  (101) 
26

>  <source_current_task>  (101) 
no_task

>  <scenario>  (101) 
1 2 3 1 0 9 5 1 3 3

>  <protected_ring_attachments>  (101) 
3,1,0,2|1,0,2;4,5,0,2|5,0,2;9,8,7,2|8,7,2;11,12,7,2|12,7,2

>  <current_task>  (101) 
no_task

>  <rotatable_bond_torsions>  (101) 
1,0,2,7;0,2,7,8

$$$$

     RDKit          3D

 14 15  0  0  0  0  0  0  0  0999 V2000
  -28.1870   -6.7770  -30.9200 C   0  0  0  0  0  0  0  0  0  0  0  0
  -27.6540   -6.6490  -32.1680 N   0  0  0  0  0  0  0  0  0  0  0  0
  -28.2270   -8.1180  -30.2410 N   0  0  0  0  0  0  0  0  0  0  0  0
  -27.7100   -5.3550  -32.5250 C   0  0  0  0  0  0  0  0  0  0  0  0
  -28.2830   -4.6880  -31.4850 N   0  0  0  0  0  0  0  0  0  0  0  0
  -28.5670   -5.5480  -30.5220 N   0  0  0  0  0  0  0  0  0  0  0  0
  -28.9630   -5.4100  -29.0950 C   0  0  0  0  0  0  0  0  0  0  0  0
  -28.3160   -9.1010  -29.0930 C   0  0  1  0  0  0  0  0  0  0  0  0
  -28.1180   -8.4810  -27.7150 C   0  0  0  0  0  0  0  0  0  0  0  0
  -28.1820   -9.5890  -26.6760 C   0  0  0  0  0  0  0  0  0  0  0  0
  -29.4150  -10.2280  -26.7260 O   0  0  0  0  0  0  0  0  0  0  0  0
  -29.6680  -10.7960  -27.9690 C   0  0  0  0  0  0  0  0  0  0  0  0
  -29.6720   -9.7530  -29.0650 C   0  0  0  0  0  0  0  0  0  0  0  0
  -28.6330   -3.9130  -28.6630 C   0  0  0  0  0  0  0  0  0  0  0  0
  1  2  2  0
  1  6  1  0
  1  3  1  0
  2  4  1  0
  8  3  1  6
  4  5  2  0
  5  6  1  0
  6  7  1  0
  8 13  1  0
  8  9  1  0
  9 10  1  0
 10 11  1  0
 11 12  1  0
 12 13  1  0
  7 14  1  0
M  END
>  <name>  (102) 
Car Nac Nd0 Car Nac Nac Cs3 C3r C3r C3r O_a C3r C3r Cs3

>  <indices>  (102) 
[0, 1, 2]

>  <tasks>  (102) 
probe_placing close_aromatic_ring close_aromatic_ring close_aromatic_ring ring_built build_to_Nac build_to_Nd0 close_aliphatic_ring close_aliphatic_ring close_aliphatic_ring close_aliphatic_ring close_aliphatic_ring

>  <prot_clashes>  (102) 
2

>  <NBS phar>  (102) 
0.12

>  <NBS_non-phar>  (102) 
0.5447697298867362

>  <NBS>  (102) 
0.6647697298867362

>  <source_stage>  (102) 
scored

>  <source_iter>  (102) 
11

>  <source_parent_mol>  (102) 
0

>  <source_scenario>  (102) 
1 2 3 1 0 9 5 1 3 3 0

>  <source_rank_in_scored_call>  (102) 
33

>  <source_current_task>  (102) 
no_task

>  <scenario>  (102) 
1 2 3 1 0 9 5 1 3 3

>  <protected_ring_attachments>  (102) 
3,1,0,2|1,0,2;4,5,0,2|5,0,2;9,8,7,2|8,7,2;11,12,7,2|12,7,2

>  <current_task>  (102) 
no_task

>  <rotatable_bond_torsions>  (102) 
1,0,2,7;0,2,7,8

$$$$

     RDKit          3D

 14 15  0  0  0  0  0  0  0  0999 V2000
  -28.1320   -6.7470  -30.8670 C   0  0  0  0  0  0  0  0  0  0  0  0
  -27.6130   -6.7000  -32.1270 N   0  0  0  0  0  0  0  0  0  0  0  0
  -28.1450   -8.0370  -30.0960 N   0  0  0  0  0  0  0  0  0  0  0  0
  -27.6930   -5.4360  -32.5740 C   0  0  0  0  0  0  0  0  0  0  0  0
  -28.2650   -4.7050  -31.5770 N   0  0  0  0  0  0  0  0  0  0  0  0
  -28.5270   -5.4990  -30.5530 N   0  0  0  0  0  0  0  0  0  0  0  0
  -28.9120   -5.2660  -29.1360 C   0  0  0  0  0  0  0  0  0  0  0  0
  -28.2080   -8.9380  -28.8800 C   0  0  1  0  0  0  0  0  0  0  0  0
  -28.0070   -8.2200  -27.5520 C   0  0  0  0  0  0  0  0  0  0  0  0
  -28.0440   -9.2510  -26.4370 C   0  0  0  0  0  0  0  0  0  0  0  0
  -29.2680   -9.9110  -26.4280 O   0  0  0  0  0  0  0  0  0  0  0  0
  -29.5230  -10.5690  -27.6240 C   0  0  0  0  0  0  0  0  0  0  0  0
  -29.5540   -9.6060  -28.7920 C   0  0  0  0  0  0  0  0  0  0  0  0
  -28.0830   -4.1430  -28.4020 C   0  0  0  0  0  0  0  0  0  0  0  0
  1  2  2  0
  1  6  1  0
  1  3  1  0
  2  4  1  0
  8  3  1  6
  4  5  2  0
  5  6  1  0
  6  7  1  0
  8 13  1  0
  8  9  1  0
  9 10  1  0
 10 11  1  0
 11 12  1  0
 12 13  1  0
  7 14  1  0
M  END
>  <name>  (103) 
Car Nac Nd0 Car Nac Nac Cs3 C3r C3r C3r O_a C3r C3r Cs3

>  <indices>  (103) 
[0, 1, 2]

>  <tasks>  (103) 
probe_placing close_aromatic_ring close_aromatic_ring close_aromatic_ring ring_built build_to_Nac build_to_Nd0 close_aliphatic_ring close_aliphatic_ring close_aliphatic_ring close_aliphatic_ring close_aliphatic_ring

>  <prot_clashes>  (103) 
4

>  <NBS phar>  (103) 
0.1

>  <NBS_non-phar>  (103) 
0.5492418152945382

>  <NBS>  (103) 
0.6492418152945382

>  <source_stage>  (103) 
scored

>  <source_iter>  (103) 
11

>  <source_parent_mol>  (103) 
0

>  <source_scenario>  (103) 
1 2 3 1 0 9 5 1 3 3 0

>  <source_rank_in_scored_call>  (103) 
51

>  <source_current_task>  (103) 
no_task

>  <scenario>  (103) 
1 2 3 1 0 9 5 1 3 3

>  <protected_ring_attachments>  (103) 
3,1,0,2|1,0,2;4,5,0,2|5,0,2;9,8,7,2|8,7,2;11,12,7,2|12,7,2

>  <current_task>  (103) 
no_task

>  <rotatable_bond_torsions>  (103) 
1,0,2,7;0,2,7,8

$$$$

     RDKit          3D

 14 15  0  0  0  0  0  0  0  0999 V2000
  -28.2050   -7.2760  -31.4790 C   0  0  0  0  0  0  0  0  0  0  0  0
  -27.6840   -6.6050  -32.5460 N   0  0  0  0  0  0  0  0  0  0  0  0
  -28.1950   -8.7790  -31.4450 N   0  0  0  0  0  0  0  0  0  0  0  0
  -27.7870   -5.2860  -32.3110 C   0  0  0  0  0  0  0  0  0  0  0  0
  -28.3760   -5.1520  -31.0900 N   0  0  0  0  0  0  0  0  0  0  0  0
  -28.6240   -6.3530  -30.5940 N   0  0  0  0  0  0  0  0  0  0  0  0
  -29.0160   -6.8560  -29.2510 C   0  0  0  0  0  0  0  0  0  0  0  0
  -28.2430  -10.1630  -30.8330 C   0  0  1  0  0  0  0  0  0  0  0  0
  -28.0570  -10.1920  -29.3220 C   0  0  0  0  0  0  0  0  0  0  0  0
  -28.0770  -11.6400  -28.8620 C   0  0  0  0  0  0  0  0  0  0  0  0
  -29.2880  -12.2370  -29.1940 O   0  0  0  0  0  0  0  0  0  0  0  0
  -29.5280  -12.2220  -30.5610 C   0  0  0  0  0  0  0  0  0  0  0  0
  -29.5750  -10.8090  -31.1020 C   0  0  0  0  0  0  0  0  0  0  0  0
  -27.7910   -7.0070  -28.3730 C   0  0  0  0  0  0  0  0  0  0  0  0
  1  2  2  0
  1  3  1  0
  1  6  1  0
  2  4  1  0
  8  3  1  1
  4  5  2  0
  5  6  1  0
  6  7  1  0
  8 13  1  0
  8  9  1  0
  9 10  1  0
 10 11  1  0
 11 12  1  0
 12 13  1  0
  7 14  1  0
M  END
>  <name>  (104) 
Car Nac Nd0 Car Nac Nac Cs3 C3r C3r C3r O_a C3r C3r Cs3

>  <indices>  (104) 
[0, 1, 2]

>  <tasks>  (104) 
probe_placing close_aromatic_ring close_aromatic_ring close_aromatic_ring ring_built build_to_Nac build_to_Nd0 close_aliphatic_ring close_aliphatic_ring close_aliphatic_ring close_aliphatic_ring close_aliphatic_ring

>  <prot_clashes>  (104) 
8

>  <NBS phar>  (104) 
0.22000000000000003

>  <NBS_non-phar>  (104) 
0.42523350034441265

>  <NBS>  (104) 
0.6452335003444127

>  <source_stage>  (104) 
scored

>  <source_iter>  (104) 
11

>  <source_parent_mol>  (104) 
0

>  <source_scenario>  (104) 
1 2 3 1 0 9 5 1 3 3 0

>  <source_rank_in_scored_call>  (104) 
55

>  <source_current_task>  (104) 
no_task

>  <scenario>  (104) 
1 2 3 1 0 9 5 1 3 3

>  <protected_ring_attachments>  (104) 
3,1,0,2|1,0,2;4,5,0,2|5,0,2;9,8,7,2|8,7,2;11,12,7,2|12,7,2

>  <current_task>  (104) 
no_task

>  <rotatable_bond_torsions>  (104) 
1,0,2,7;0,2,7,8

$$$$

     RDKit          3D

 14 15  0  0  0  0  0  0  0  0999 V2000
  -28.1840   -7.2820  -31.4920 C   0  0  0  0  0  0  0  0  0  0  0  0
  -27.6950   -6.6010  -32.5680 N   0  0  0  0  0  0  0  0  0  0  0  0
  -28.2250   -8.7850  -31.4960 N   0  0  0  0  0  0  0  0  0  0  0  0
  -27.7400   -5.2870  -32.2960 C   0  0  0  0  0  0  0  0  0  0  0  0
  -28.2620   -5.1650  -31.0440 N   0  0  0  0  0  0  0  0  0  0  0  0
  -28.5270   -6.3690  -30.5650 N   0  0  0  0  0  0  0  0  0  0  0  0
  -28.8680   -6.8940  -29.2170 C   0  0  0  0  0  0  0  0  0  0  0  0
  -28.2900  -10.1830  -30.9160 C   0  0  1  0  0  0  0  0  0  0  0  0
  -28.0300  -10.2570  -29.4170 C   0  0  0  0  0  0  0  0  0  0  0  0
  -28.0770  -11.7150  -28.9920 C   0  0  0  0  0  0  0  0  0  0  0  0
  -29.3230  -12.2620  -29.2760 O   0  0  0  0  0  0  0  0  0  0  0  0
  -29.6310  -12.2040  -30.6290 C   0  0  0  0  0  0  0  0  0  0  0  0
  -29.6560  -10.7770  -31.1320 C   0  0  0  0  0  0  0  0  0  0  0  0
  -27.7450   -7.0580  -28.1550 C   0  0  0  0  0  0  0  0  0  0  0  0
  1  2  2  0
  1  3  1  0
  1  6  1  0
  2  4  1  0
  8  3  1  1
  4  5  2  0
  5  6  1  0
  6  7  1  0
  8 13  1  0
  8  9  1  0
  9 10  1  0
 10 11  1  0
 11 12  1  0
 12 13  1  0
  7 14  1  0
M  END
>  <name>  (105) 
Car Nac Nd0 Car Nac Nac Cs3 C3r C3r C3r O_a C3r C3r Cs3

>  <indices>  (105) 
[0, 1, 2]

>  <tasks>  (105) 
probe_placing close_aromatic_ring close_aromatic_ring close_aromatic_ring ring_built build_to_Nac build_to_Nd0 close_aliphatic_ring close_aliphatic_ring close_aliphatic_ring close_aliphatic_ring close_aliphatic_ring

>  <prot_clashes>  (105) 
8

>  <NBS phar>  (105) 
0.2

>  <NBS_non-phar>  (105) 
0.4187822001320975

>  <NBS>  (105) 
0.6187822001320975

>  <source_stage>  (105) 
scored

>  <source_iter>  (105) 
11

>  <source_parent_mol>  (105) 
0

>  <source_scenario>  (105) 
1 2 3 1 0 9 5 1 3 3 0

>  <source_rank_in_scored_call>  (105) 
85

>  <source_current_task>  (105) 
no_task

>  <scenario>  (105) 
1 2 3 1 0 9 5 1 3 3

>  <protected_ring_attachments>  (105) 
3,1,0,2|1,0,2;4,5,0,2|5,0,2;9,8,7,2|8,7,2;11,12,7,2|12,7,2

>  <current_task>  (105) 
no_task

>  <rotatable_bond_torsions>  (105) 
1,0,2,7;0,2,7,8

$$$$

     RDKit          3D

 14 15  0  0  0  0  0  0  0  0999 V2000
  -28.4080   -7.1020  -31.0530 C   0  0  0  0  0  0  0  0  0  0  0  0
  -28.3030   -6.8180  -32.3820 N   0  0  0  0  0  0  0  0  0  0  0  0
  -28.6220   -8.5170  -30.5900 N   0  0  0  0  0  0  0  0  0  0  0  0
  -28.0840   -5.5000  -32.5210 C   0  0  0  0  0  0  0  0  0  0  0  0
  -28.0540   -4.9760  -31.2640 N   0  0  0  0  0  0  0  0  0  0  0  0
  -28.2490   -5.9440  -30.3850 N   0  0  0  0  0  0  0  0  0  0  0  0
  -28.0930   -6.0500  -28.9100 C   0  0  0  0  0  0  0  0  0  0  0  0
  -28.6180   -9.6890  -29.6310 C   0  0  1  0  0  0  0  0  0  0  0  0
  -27.8010   -9.4650  -28.3650 C   0  0  0  0  0  0  0  0  0  0  0  0
  -27.8480  -10.7360  -27.5320 C   0  0  0  0  0  0  0  0  0  0  0  0
  -29.1600  -11.0430  -27.1920 O   0  0  0  0  0  0  0  0  0  0  0  0
  -29.9650  -11.2370  -28.3070 C   0  0  0  0  0  0  0  0  0  0  0  0
  -30.0180   -9.9980  -29.1750 C   0  0  0  0  0  0  0  0  0  0  0  0
  -28.0650  -10.8290  -30.4820 C   0  0  0  0  0  0  0  0  0  0  0  0
  1  2  2  0
  1  3  1  0
  1  6  1  0
  2  4  1  0
  3  8  1  0
  4  5  2  0
  5  6  1  0
  6  7  1  0
  8 14  1  6
  8 13  1  0
  8  9  1  0
  9 10  1  0
 10 11  1  0
 11 12  1  0
 12 13  1  0
M  END
>  <name>  (106) 
Car Nac Nd0 Car Nac Nac Cs3 C3r C3r C3r O_a C3r C3r Cs3

>  <indices>  (106) 
[0, 1, 2]

>  <tasks>  (106) 
probe_placing close_aromatic_ring close_aromatic_ring close_aromatic_ring ring_built build_to_Nac build_to_Nd0 close_aliphatic_ring close_aliphatic_ring close_aliphatic_ring close_aliphatic_ring close_aliphatic_ring

>  <prot_clashes>  (106) 
4

>  <NBS phar>  (106) 
0.12

>  <NBS_non-phar>  (106) 
0.4119446277618408

>  <NBS>  (106) 
0.5319446277618408

>  <source_stage>  (106) 
scored

>  <source_iter>  (106) 
11

>  <source_parent_mol>  (106) 
0

>  <source_scenario>  (106) 
1 2 3 1 0 9 5 1 3 3 0

>  <source_rank_in_scored_call>  (106) 
132

>  <source_current_task>  (106) 
no_task

>  <scenario>  (106) 
1 2 3 1 0 9 5 1 3 3

>  <protected_ring_attachments>  (106) 
3,1,0,2|1,0,2;4,5,0,2|5,0,2;9,8,7,2|8,7,2;11,12,7,2|12,7,2

>  <current_task>  (106) 
no_task

>  <rotatable_bond_torsions>  (106) 
1,0,2,7;0,2,7,8

$$$$

     RDKit          3D

 14 15  0  0  0  0  0  0  0  0999 V2000
  -28.4080   -7.1020  -31.0530 C   0  0  0  0  0  0  0  0  0  0  0  0
  -28.3030   -6.8180  -32.3820 N   0  0  0  0  0  0  0  0  0  0  0  0
  -28.6220   -8.5170  -30.5900 N   0  0  0  0  0  0  0  0  0  0  0  0
  -28.0840   -5.5000  -32.5210 C   0  0  0  0  0  0  0  0  0  0  0  0
  -28.0540   -4.9760  -31.2640 N   0  0  0  0  0  0  0  0  0  0  0  0
  -28.2490   -5.9440  -30.3850 N   0  0  0  0  0  0  0  0  0  0  0  0
  -28.0930   -6.0500  -28.9100 C   0  0  0  0  0  0  0  0  0  0  0  0
  -28.6180   -9.6890  -29.6310 C   0  0  1  0  0  0  0  0  0  0  0  0
  -27.8010   -9.4650  -28.3650 C   0  0  0  0  0  0  0  0  0  0  0  0
  -27.8480  -10.7360  -27.5320 C   0  0  0  0  0  0  0  0  0  0  0  0
  -29.1600  -11.0430  -27.1920 O   0  0  0  0  0  0  0  0  0  0  0  0
  -29.9650  -11.2370  -28.3070 C   0  0  0  0  0  0  0  0  0  0  0  0
  -30.0180   -9.9980  -29.1750 C   0  0  0  0  0  0  0  0  0  0  0  0
  -28.0650  -10.8290  -30.4820 C   0  0  0  0  0  0  0  0  0  0  0  0
  1  2  2  0
  1  3  1  0
  1  6  1  0
  2  4  1  0
  3  8  1  0
  4  5  2  0
  5  6  1  0
  6  7  1  0
  8 14  1  6
  8 13  1  0
  8  9  1  0
  9 10  1  0
 10 11  1  0
 11 12  1  0
 12 13  1  0
M  END
>  <name>  (107) 
Car Nac Nd0 Car Nac Nac Cs3 C3r C3r C3r O_a C3r C3r Cs3

>  <indices>  (107) 
[0, 1, 2]

>  <tasks>  (107) 
probe_placing close_aromatic_ring close_aromatic_ring close_aromatic_ring ring_built build_to_Nac build_to_Nd0 close_aliphatic_ring close_aliphatic_ring close_aliphatic_ring close_aliphatic_ring close_aliphatic_ring

>  <prot_clashes>  (107) 
4

>  <NBS phar>  (107) 
0.12

>  <NBS_non-phar>  (107) 
0.4119446277618408

>  <NBS>  (107) 
0.5319446277618408

>  <source_stage>  (107) 
scored

>  <source_iter>  (107) 
11

>  <source_parent_mol>  (107) 
0

>  <source_scenario>  (107) 
1 2 3 1 0 9 5 1 3 3 0

>  <source_rank_in_scored_call>  (107) 
133

>  <source_current_task>  (107) 
no_task

>  <scenario>  (107) 
1 2 3 1 0 9 5 1 3 3

>  <protected_ring_attachments>  (107) 
3,1,0,2|1,0,2;4,5,0,2|5,0,2;9,8,7,2|8,7,2;11,12,7,2|12,7,2

>  <current_task>  (107) 
no_task

>  <rotatable_bond_torsions>  (107) 
1,0,2,7;0,2,7,8

$$$$

     RDKit          3D

 14 15  0  0  0  0  0  0  0  0999 V2000
  -28.3830   -7.1010  -31.0400 C   0  0  0  0  0  0  0  0  0  0  0  0
  -28.2760   -6.8220  -32.3700 N   0  0  0  0  0  0  0  0  0  0  0  0
  -28.5940   -8.5130  -30.5710 N   0  0  0  0  0  0  0  0  0  0  0  0
  -28.0610   -5.5040  -32.5140 C   0  0  0  0  0  0  0  0  0  0  0  0
  -28.0360   -4.9740  -31.2600 N   0  0  0  0  0  0  0  0  0  0  0  0
  -28.2310   -5.9390  -30.3770 N   0  0  0  0  0  0  0  0  0  0  0  0
  -28.0770   -6.0370  -28.9010 C   0  0  0  0  0  0  0  0  0  0  0  0
  -28.5880   -9.6810  -29.6070 C   0  0  1  0  0  0  0  0  0  0  0  0
  -27.7760   -9.4500  -28.3400 C   0  0  0  0  0  0  0  0  0  0  0  0
  -27.8200  -10.7160  -27.5010 C   0  0  0  0  0  0  0  0  0  0  0  0
  -29.1330  -11.0270  -27.1630 O   0  0  0  0  0  0  0  0  0  0  0  0
  -29.9340  -11.2280  -28.2800 C   0  0  0  0  0  0  0  0  0  0  0  0
  -29.9890   -9.9930  -29.1530 C   0  0  0  0  0  0  0  0  0  0  0  0
  -28.0450  -10.7660  -30.4840 C   0  0  0  0  0  0  0  0  0  0  0  0
  1  2  2  0
  1  3  1  0
  1  6  1  0
  2  4  1  0
  3  8  1  0
  4  5  2  0
  5  6  1  0
  6  7  1  0
  8 14  1  6
  8 13  1  0
  8  9  1  0
  9 10  1  0
 10 11  1  0
 11 12  1  0
 12 13  1  0
M  END
>  <name>  (108) 
Car Nac Nd0 Car Nac Nac Cs3 C3r C3r C3r O_a C3r C3r Cs3

>  <indices>  (108) 
[0, 1, 2]

>  <tasks>  (108) 
probe_placing close_aromatic_ring close_aromatic_ring close_aromatic_ring ring_built build_to_Nac build_to_Nd0 close_aliphatic_ring close_aliphatic_ring close_aliphatic_ring close_aliphatic_ring close_aliphatic_ring

>  <prot_clashes>  (108) 
4

>  <NBS phar>  (108) 
0.12

>  <NBS_non-phar>  (108) 
0.40912747383117676

>  <NBS>  (108) 
0.5291274738311768

>  <source_stage>  (108) 
scored

>  <source_iter>  (108) 
11

>  <source_parent_mol>  (108) 
0

>  <source_scenario>  (108) 
1 2 3 1 0 9 5 1 3 3 0

>  <source_rank_in_scored_call>  (108) 
136

>  <source_current_task>  (108) 
no_task

>  <scenario>  (108) 
1 2 3 1 0 9 5 1 3 3

>  <protected_ring_attachments>  (108) 
3,1,0,2|1,0,2;4,5,0,2|5,0,2;9,8,7,2|8,7,2;11,12,7,2|12,7,2

>  <current_task>  (108) 
no_task

>  <rotatable_bond_torsions>  (108) 
1,0,2,7;0,2,7,8

$$$$

     RDKit          3D

 14 15  0  0  0  0  0  0  0  0999 V2000
  -28.1090   -7.0910  -31.1900 C   0  0  0  0  0  0  0  0  0  0  0  0
  -27.6850   -6.7090  -32.4280 N   0  0  0  0  0  0  0  0  0  0  0  0
  -28.0970   -8.5410  -30.7940 N   0  0  0  0  0  0  0  0  0  0  0  0
  -27.7660   -5.3710  -32.5120 C   0  0  0  0  0  0  0  0  0  0  0  0
  -28.2440   -4.9330  -31.3140 N   0  0  0  0  0  0  0  0  0  0  0  0
  -28.4480   -5.9720  -30.5230 N   0  0  0  0  0  0  0  0  0  0  0  0
  -28.7190   -6.1280  -29.0690 C   0  0  0  0  0  0  0  0  0  0  0  0
  -28.0910   -9.7350  -29.8630 C   0  0  1  0  0  0  0  0  0  0  0  0
  -27.7730   -9.4020  -28.4110 C   0  0  0  0  0  0  0  0  0  0  0  0
  -27.7520  -10.6960  -27.6140 C   0  0  0  0  0  0  0  0  0  0  0  0
  -28.9880  -11.3280  -27.6860 O   0  0  0  0  0  0  0  0  0  0  0  0
  -29.3490  -11.6390  -28.9910 C   0  0  0  0  0  0  0  0  0  0  0  0
  -29.4430  -10.3980  -29.8520 C   0  0  0  0  0  0  0  0  0  0  0  0
  -29.5540   -4.9890  -28.5220 C   0  0  0  0  0  0  0  0  0  0  0  0
  1  2  2  0
  1  3  1  0
  1  6  1  0
  2  4  1  0
  8  3  1  6
  4  5  2  0
  5  6  1  0
  6  7  1  0
  8 13  1  0
  8  9  1  0
  9 10  1  0
 10 11  1  0
 11 12  1  0
 12 13  1  0
  7 14  1  0
M  END
>  <name>  (109) 
Car Nac Nd0 Car Nac Nac Cs3 C3r C3r C3r O_a C3r C3r Cs3

>  <indices>  (109) 
[0, 1, 2]

>  <tasks>  (109) 
probe_placing close_aromatic_ring close_aromatic_ring close_aromatic_ring ring_built build_to_Nac build_to_Nd0 close_aliphatic_ring close_aliphatic_ring close_aliphatic_ring close_aliphatic_ring close_aliphatic_ring

>  <prot_clashes>  (109) 
6

>  <NBS phar>  (109) 
0.1

>  <NBS_non-phar>  (109) 
0.4288885252816336

>  <NBS>  (109) 
0.5288885252816337

>  <source_stage>  (109) 
scored

>  <source_iter>  (109) 
11

>  <source_parent_mol>  (109) 
0

>  <source_scenario>  (109) 
1 2 3 1 0 9 5 1 3 3 0

>  <source_rank_in_scored_call>  (109) 
137

>  <source_current_task>  (109) 
no_task

>  <scenario>  (109) 
1 2 3 1 0 9 5 1 3 3

>  <protected_ring_attachments>  (109) 
3,1,0,2|1,0,2;4,5,0,2|5,0,2;9,8,7,2|8,7,2;11,12,7,2|12,7,2

>  <current_task>  (109) 
no_task

>  <rotatable_bond_torsions>  (109) 
1,0,2,7;0,2,7,8

$$$$

     RDKit          3D

 14 15  0  0  0  0  0  0  0  0999 V2000
  -28.4490   -7.0850  -31.0340 C   0  0  0  0  0  0  0  0  0  0  0  0
  -28.3590   -6.7990  -32.3640 N   0  0  0  0  0  0  0  0  0  0  0  0
  -28.6930   -8.4940  -30.5710 N   0  0  0  0  0  0  0  0  0  0  0  0
  -28.1070   -5.4870  -32.5020 C   0  0  0  0  0  0  0  0  0  0  0  0
  -28.0430   -4.9680  -31.2450 N   0  0  0  0  0  0  0  0  0  0  0  0
  -28.2490   -5.9340  -30.3650 N   0  0  0  0  0  0  0  0  0  0  0  0
  -28.0700   -6.0480  -28.8940 C   0  0  0  0  0  0  0  0  0  0  0  0
  -28.7040   -9.6700  -29.6170 C   0  0  1  0  0  0  0  0  0  0  0  0
  -27.8610   -9.4720  -28.3630 C   0  0  0  0  0  0  0  0  0  0  0  0
  -27.9280  -10.7440  -27.5340 C   0  0  0  0  0  0  0  0  0  0  0  0
  -29.2420  -11.0170  -27.1730 O   0  0  0  0  0  0  0  0  0  0  0  0
  -30.0700  -11.1850  -28.2750 C   0  0  0  0  0  0  0  0  0  0  0  0
  -30.1050   -9.9430  -29.1380 C   0  0  0  0  0  0  0  0  0  0  0  0
  -28.0360  -10.7650  -30.4920 C   0  0  0  0  0  0  0  0  0  0  0  0
  1  2  2  0
  1  3  1  0
  1  6  1  0
  2  4  1  0
  3  8  1  0
  4  5  2  0
  5  6  1  0
  6  7  1  0
  8 14  1  6
  8 13  1  0
  8  9  1  0
  9 10  1  0
 10 11  1  0
 11 12  1  0
 12 13  1  0
M  END
>  <name>  (110) 
Car Nac Nd0 Car Nac Nac Cs3 C3r C3r C3r O_a C3r C3r Cs3

>  <indices>  (110) 
[0, 1, 2]

>  <tasks>  (110) 
probe_placing close_aromatic_ring close_aromatic_ring close_aromatic_ring ring_built build_to_Nac build_to_Nd0 close_aliphatic_ring close_aliphatic_ring close_aliphatic_ring close_aliphatic_ring close_aliphatic_ring

>  <prot_clashes>  (110) 
4

>  <NBS phar>  (110) 
0.12

>  <NBS_non-phar>  (110) 
0.3726379190172468

>  <NBS>  (110) 
0.4926379190172468

>  <source_stage>  (110) 
scored

>  <source_iter>  (110) 
11

>  <source_parent_mol>  (110) 
0

>  <source_scenario>  (110) 
1 2 3 1 0 9 5 1 3 3 0

>  <source_rank_in_scored_call>  (110) 
155

>  <source_current_task>  (110) 
no_task

>  <scenario>  (110) 
1 2 3 1 0 9 5 1 3 3

>  <protected_ring_attachments>  (110) 
3,1,0,2|1,0,2;4,5,0,2|5,0,2;9,8,7,2|8,7,2;11,12,7,2|12,7,2

>  <current_task>  (110) 
no_task

>  <rotatable_bond_torsions>  (110) 
1,0,2,7;0,2,7,8

$$$$

     RDKit          3D

 14 15  0  0  0  0  0  0  0  0999 V2000
  -28.4490   -7.0850  -31.0340 C   0  0  0  0  0  0  0  0  0  0  0  0
  -28.3590   -6.7990  -32.3640 N   0  0  0  0  0  0  0  0  0  0  0  0
  -28.6930   -8.4940  -30.5710 N   0  0  0  0  0  0  0  0  0  0  0  0
  -28.1070   -5.4870  -32.5020 C   0  0  0  0  0  0  0  0  0  0  0  0
  -28.0430   -4.9680  -31.2450 N   0  0  0  0  0  0  0  0  0  0  0  0
  -28.2490   -5.9340  -30.3650 N   0  0  0  0  0  0  0  0  0  0  0  0
  -28.0700   -6.0480  -28.8940 C   0  0  0  0  0  0  0  0  0  0  0  0
  -28.7040   -9.6700  -29.6170 C   0  0  1  0  0  0  0  0  0  0  0  0
  -27.8610   -9.4720  -28.3630 C   0  0  0  0  0  0  0  0  0  0  0  0
  -27.9280  -10.7440  -27.5340 C   0  0  0  0  0  0  0  0  0  0  0  0
  -29.2420  -11.0170  -27.1730 O   0  0  0  0  0  0  0  0  0  0  0  0
  -30.0700  -11.1850  -28.2750 C   0  0  0  0  0  0  0  0  0  0  0  0
  -30.1050   -9.9430  -29.1380 C   0  0  0  0  0  0  0  0  0  0  0  0
  -28.0360  -10.7650  -30.4920 C   0  0  0  0  0  0  0  0  0  0  0  0
  1  2  2  0
  1  3  1  0
  1  6  1  0
  2  4  1  0
  3  8  1  0
  4  5  2  0
  5  6  1  0
  6  7  1  0
  8 14  1  6
  8 13  1  0
  8  9  1  0
  9 10  1  0
 10 11  1  0
 11 12  1  0
 12 13  1  0
M  END
>  <name>  (111) 
Car Nac Nd0 Car Nac Nac Cs3 C3r C3r C3r O_a C3r C3r Cs3

>  <indices>  (111) 
[0, 1, 2]

>  <tasks>  (111) 
probe_placing close_aromatic_ring close_aromatic_ring close_aromatic_ring ring_built build_to_Nac build_to_Nd0 close_aliphatic_ring close_aliphatic_ring close_aliphatic_ring close_aliphatic_ring close_aliphatic_ring

>  <prot_clashes>  (111) 
4

>  <NBS phar>  (111) 
0.12

>  <NBS_non-phar>  (111) 
0.37263764653887066

>  <NBS>  (111) 
0.49263764653887065

>  <source_stage>  (111) 
scored

>  <source_iter>  (111) 
11

>  <source_parent_mol>  (111) 
0

>  <source_scenario>  (111) 
1 2 3 1 0 9 5 1 3 3 0

>  <source_rank_in_scored_call>  (111) 
156

>  <source_current_task>  (111) 
no_task

>  <scenario>  (111) 
1 2 3 1 0 9 5 1 3 3

>  <protected_ring_attachments>  (111) 
3,1,0,2|1,0,2;4,5,0,2|5,0,2;9,8,7,2|8,7,2;11,12,7,2|12,7,2

>  <current_task>  (111) 
no_task

>  <rotatable_bond_torsions>  (111) 
1,0,2,7;0,2,7,8

$$$$

     RDKit          3D

 14 15  0  0  0  0  0  0  0  0999 V2000
  -28.4280   -7.0890  -31.0430 C   0  0  0  0  0  0  0  0  0  0  0  0
  -28.3430   -6.8040  -32.3740 N   0  0  0  0  0  0  0  0  0  0  0  0
  -28.6520   -8.5010  -30.5780 N   0  0  0  0  0  0  0  0  0  0  0  0
  -28.1090   -5.4890  -32.5140 C   0  0  0  0  0  0  0  0  0  0  0  0
  -28.0510   -4.9670  -31.2570 N   0  0  0  0  0  0  0  0  0  0  0  0
  -28.2430   -5.9340  -30.3760 N   0  0  0  0  0  0  0  0  0  0  0  0
  -28.0630   -6.0440  -28.9050 C   0  0  0  0  0  0  0  0  0  0  0  0
  -28.6470   -9.6750  -29.6210 C   0  0  1  0  0  0  0  0  0  0  0  0
  -27.8060   -9.4640  -28.3690 C   0  0  0  0  0  0  0  0  0  0  0  0
  -27.8550  -10.7350  -27.5370 C   0  0  0  0  0  0  0  0  0  0  0  0
  -29.1650  -11.0260  -27.1750 O   0  0  0  0  0  0  0  0  0  0  0  0
  -29.9910  -11.2070  -28.2770 C   0  0  0  0  0  0  0  0  0  0  0  0
  -30.0430   -9.9670  -29.1420 C   0  0  0  0  0  0  0  0  0  0  0  0
  -28.0260  -10.7780  -30.4320 C   0  0  0  0  0  0  0  0  0  0  0  0
  1  2  2  0
  1  3  1  0
  1  6  1  0
  2  4  1  0
  3  8  1  0
  4  5  2  0
  5  6  1  0
  6  7  1  0
  8 14  1  6
  8 13  1  0
  8  9  1  0
  9 10  1  0
 10 11  1  0
 11 12  1  0
 12 13  1  0
M  END
>  <name>  (112) 
Car Nac Nd0 Car Nac Nac Cs3 C3r C3r C3r O_a C3r C3r Cs3

>  <indices>  (112) 
[0, 1, 2]

>  <tasks>  (112) 
probe_placing close_aromatic_ring close_aromatic_ring close_aromatic_ring ring_built build_to_Nac build_to_Nd0 close_aliphatic_ring close_aliphatic_ring close_aliphatic_ring close_aliphatic_ring close_aliphatic_ring

>  <prot_clashes>  (112) 
4

>  <NBS phar>  (112) 
0.12

>  <NBS_non-phar>  (112) 
0.36439950125558035

>  <NBS>  (112) 
0.48439950125558034

>  <source_stage>  (112) 
scored

>  <source_iter>  (112) 
11

>  <source_parent_mol>  (112) 
0

>  <source_scenario>  (112) 
1 2 3 1 0 9 5 1 3 3 0

>  <source_rank_in_scored_call>  (112) 
160

>  <source_current_task>  (112) 
no_task

>  <scenario>  (112) 
1 2 3 1 0 9 5 1 3 3

>  <protected_ring_attachments>  (112) 
3,1,0,2|1,0,2;4,5,0,2|5,0,2;9,8,7,2|8,7,2;11,12,7,2|12,7,2

>  <current_task>  (112) 
no_task

>  <rotatable_bond_torsions>  (112) 
1,0,2,7;0,2,7,8

$$$$

     RDKit          3D

 14 15  0  0  0  0  0  0  0  0999 V2000
  -28.1820   -7.3480  -30.7880 C   0  0  0  0  0  0  0  0  0  0  0  0
  -27.6940   -6.5480  -31.7780 N   0  0  0  0  0  0  0  0  0  0  0  0
  -28.2010   -8.8420  -30.9540 N   0  0  0  0  0  0  0  0  0  0  0  0
  -27.7600   -5.2720  -31.3670 C   0  0  0  0  0  0  0  0  0  0  0  0
  -28.2940   -5.2930  -30.1140 N   0  0  0  0  0  0  0  0  0  0  0  0
  -28.5460   -6.5450  -29.7710 N   0  0  0  0  0  0  0  0  0  0  0  0
  -28.8900   -7.2170  -28.4900 C   0  0  0  0  0  0  0  0  0  0  0  0
  -28.2510  -10.2950  -30.5290 C   0  0  1  0  0  0  0  0  0  0  0  0
  -28.0030  -10.5270  -29.0440 C   0  0  0  0  0  0  0  0  0  0  0  0
  -28.0320  -12.0230  -28.7790 C   0  0  0  0  0  0  0  0  0  0  0  0
  -29.2680  -12.5530  -29.1330 O   0  0  0  0  0  0  0  0  0  0  0  0
  -29.5650  -12.3530  -30.4750 C   0  0  0  0  0  0  0  0  0  0  0  0
  -29.6070  -10.8800  -30.8210 C   0  0  0  0  0  0  0  0  0  0  0  0
  -27.3280   -4.0520  -32.1420 C   0  0  0  0  0  0  0  0  0  0  0  0
  1  2  2  0
  1  3  1  0
  1  6  1  0
  2  4  1  0
  8  3  1  1
  4 14  1  0
  4  5  2  0
  5  6  1  0
  6  7  1  0
  8 13  1  0
  8  9  1  0
  9 10  1  0
 10 11  1  0
 11 12  1  0
 12 13  1  0
M  END
>  <name>  (113) 
Car Nac Nd0 Car Nac Nac Cs3 C3r C3r C3r O_a C3r C3r Cs3

>  <indices>  (113) 
[0, 1, 2]

>  <tasks>  (113) 
probe_placing close_aromatic_ring close_aromatic_ring close_aromatic_ring ring_built build_to_Nac build_to_Nd0 close_aliphatic_ring close_aliphatic_ring close_aliphatic_ring close_aliphatic_ring close_aliphatic_ring

>  <prot_clashes>  (113) 
6

>  <NBS phar>  (113) 
0.1

>  <NBS_non-phar>  (113) 
0.3680765628814697

>  <NBS>  (113) 
0.4680765628814697

>  <source_stage>  (113) 
scored

>  <source_iter>  (113) 
11

>  <source_parent_mol>  (113) 
0

>  <source_scenario>  (113) 
1 2 3 1 0 9 5 1 3 3 0

>  <source_rank_in_scored_call>  (113) 
164

>  <source_current_task>  (113) 
no_task

>  <scenario>  (113) 
1 2 3 1 0 9 5 1 3 3

>  <protected_ring_attachments>  (113) 
3,1,0,2|1,0,2;4,5,0,2|5,0,2;9,8,7,2|8,7,2;11,12,7,2|12,7,2

>  <current_task>  (113) 
no_task

>  <rotatable_bond_torsions>  (113) 
1,0,2,7;0,2,7,8

$$$$

     RDKit          3D

 15 16  0  0  0  0  0  0  0  0999 V2000
  -28.2130   -7.6710  -31.5150 C   0  0  0  0  0  0  0  0  0  0  0  0
  -28.0790   -6.7930  -32.5490 N   0  0  0  0  0  0  0  0  0  0  0  0
  -28.4970   -9.1230  -31.7800 N   0  0  0  0  0  0  0  0  0  0  0  0
  -27.7960   -5.5790  -32.0460 C   0  0  0  0  0  0  0  0  0  0  0  0
  -27.7610   -5.7190  -30.6920 N   0  0  0  0  0  0  0  0  0  0  0  0
  -28.0100   -6.9790  -30.3780 N   0  0  0  0  0  0  0  0  0  0  0  0
  -27.8770   -7.7790  -29.1330 C   0  0  0  0  0  0  0  0  0  0  0  0
  -28.5450  -10.0990  -30.7310 C   0  0  2  0  0  0  0  0  0  0  0  0
  -27.9610  -11.3850  -31.1570 C   0  0  0  0  0  0  0  0  0  0  0  0
  -27.8830  -12.4300  -30.0670 C   0  0  0  0  0  0  0  0  0  0  0  0
  -29.6530  -12.6750  -29.5260 S   0  0  1  0  0  0  0  0  0  0  0  0
  -30.3610  -13.4480  -30.4770 O   0  0  0  0  0  0  0  0  0  0  0  0
  -29.6020  -13.4180  -28.2070 O   0  0  0  0  0  0  0  0  0  0  0  0
  -30.1340  -10.9480  -28.9970 C   0  0  0  0  0  0  0  0  0  0  0  0
  -29.9390  -10.1050  -30.2160 C   0  0  0  0  0  0  0  0  0  0  0  0
  1  2  2  0
  1  3  1  0
  1  6  1  0
  2  4  1  0
  8  3  1  6
  4  5  2  0
  5  6  1  0
  6  7  1  0
  8  9  1  0
  8 15  1  0
  9 10  1  0
 11 10  1  6
 11 12  2  0
 11 14  1  0
 11 13  2  0
 14 15  1  0
M  END
>  <name>  (114) 
Car Nac Nd0 Car Nac Nac Cs3 C3r C3r C3r SO2 .=O .=O C3r C3r

>  <indices>  (114) 
[0, 1, 2]

>  <tasks>  (114) 
probe_placing close_aromatic_ring close_aromatic_ring close_aromatic_ring ring_built build_to_Nac build_to_Nd0 close_aliphatic_ring close_aliphatic_ring close_aliphatic_ring build_.=O_to_SO2 build_.=O_to_SO2 close_aliphatic_ring

>  <prot_clashes>  (114) 
4

>  <NBS phar>  (114) 
0.2800000000000001

>  <NBS_non-phar>  (114) 
0.6348119099934896

>  <NBS>  (114) 
0.9148119099934897

>  <source_stage>  (114) 
scored

>  <source_iter>  (114) 
12

>  <source_parent_mol>  (114) 
0

>  <source_scenario>  (114) 
1 2 3 1 0 9 5 1 7 2 0 0

>  <source_rank_in_scored_call>  (114) 
0

>  <source_current_task>  (114) 
close_aliphatic_ring

>  <scenario>  (114) 
1 2 3 1 0 9 5 1 7 2 0

>  <protected_ring_attachments>  (114) 
3,1,0,2|1,0,2;4,5,0,2|5,0,2

>  <current_task>  (114) 
no_task

>  <rotatable_bond_torsions>  (114) 
1,0,2,7;0,2,7,8;2,7,8,9;7,8,9,10;8,9,10,13

$$$$

     RDKit          3D

 13 14  0  0  0  0  0  0  0  0999 V2000
  -28.3900   -7.3470  -31.4670 C   0  0  0  0  0  0  0  0  0  0  0  0
  -28.1250   -6.5710  -32.5570 N   0  0  0  0  0  0  0  0  0  0  0  0
  -28.6740   -8.8150  -31.6270 N   0  0  0  0  0  0  0  0  0  0  0  0
  -27.8740   -5.3200  -32.1410 C   0  0  0  0  0  0  0  0  0  0  0  0
  -27.9870   -5.3340  -30.7820 N   0  0  0  0  0  0  0  0  0  0  0  0
  -28.2960   -6.5550  -30.3840 N   0  0  0  0  0  0  0  0  0  0  0  0
  -28.3140   -7.2380  -29.0630 C   0  0  0  0  0  0  0  0  0  0  0  0
  -29.1030   -9.7850  -30.6440 C   0  0  1  0  0  0  0  0  0  0  0  0
  -28.0630  -10.8430  -30.3930 C   0  0  0  0  0  0  0  0  0  0  0  0
  -28.7330  -12.1310  -30.0490 C   0  0  0  0  0  0  0  0  0  0  0  0
  -29.5660  -11.9590  -28.8140 C   0  0  0  0  0  0  0  0  0  0  0  0
  -30.6130  -10.9070  -29.0600 C   0  0  0  0  0  0  0  0  0  0  0  0
  -29.9390   -9.6000  -29.4010 C   0  0  0  0  0  0  0  0  0  0  0  0
  1  2  2  0
  1  3  1  0
  1  6  1  0
  2  4  1  0
  8  3  1  1
  4  5  2  0
  5  6  1  0
  6  7  1  0
  8  9  1  0
  8 13  1  0
  9 10  1  0
 10 11  1  0
 11 12  1  0
 12 13  1  0
M  END
>  <name>  (115) 
Car Nac Nd0 Car Nac Nac Cs3 C3r C3r C3r C3r C3r C3r

>  <indices>  (115) 
[0, 1, 2]

>  <tasks>  (115) 
probe_placing close_aromatic_ring close_aromatic_ring close_aromatic_ring ring_built build_to_Nac build_to_Nd0 close_aliphatic_ring close_aliphatic_ring close_aliphatic_ring close_aliphatic_ring

>  <prot_clashes>  (115) 
7

>  <NBS phar>  (115) 
0.1

>  <NBS_non-phar>  (115) 
0.5665059456458459

>  <NBS>  (115) 
0.6665059456458459

>  <source_stage>  (115) 
scored

>  <source_iter>  (115) 
10

>  <source_parent_mol>  (115) 
4

>  <source_scenario>  (115) 
1 2 3 1 0 9 5 1 8 4

>  <source_rank_in_scored_call>  (115) 
1

>  <source_current_task>  (115) 
close_aliphatic_ring

>  <scenario>  (115) 
1 2 3 1 0 9 5 1 8

>  <protected_ring_attachments>  (115) 
3,1,0,2|1,0,2;4,5,0,2|5,0,2

>  <current_task>  (115) 
no_task

>  <rotatable_bond_torsions>  (115) 
1,0,2,7;0,2,7,8;2,7,8,9;7,8,9,10;8,9,10,11

$$$$

     RDKit          3D

 18 20  0  0  0  0  0  0  0  0999 V2000
  -27.4040   -6.8150  -30.7980 C   0  0  0  0  0  0  0  0  0  0  0  0
  -27.3500   -7.3970  -32.0320 N   0  0  0  0  0  0  0  0  0  0  0  0
  -26.6670   -7.4240  -29.6380 N   0  0  0  0  0  0  0  0  0  0  0  0
  -28.0620   -6.6420  -32.8890 C   0  0  0  0  0  0  0  0  0  0  0  0
  -28.5500   -5.5960  -32.1670 N   0  0  0  0  0  0  0  0  0  0  0  0
  -28.1570   -5.7030  -30.9150 N   0  0  0  0  0  0  0  0  0  0  0  0
  -28.4530   -4.7760  -29.8790 C   0  0  0  0  0  0  0  0  0  0  0  0
  -29.1890   -3.6340  -30.1560 C   0  0  0  0  0  0  0  0  0  0  0  0
  -29.3870   -3.0290  -29.0070 O   0  0  0  0  0  0  0  0  0  0  0  0
  -28.2240   -4.8120  -28.5110 C   0  0  0  0  0  0  0  0  0  0  0  0
  -28.8410   -3.6830  -28.0130 C   0  0  0  0  0  0  0  0  0  0  0  0
  -27.3770   -8.4190  -28.9590 C   0  0  2  0  0  0  0  0  0  0  0  0
  -28.8390   -8.1130  -28.7870 C   0  0  0  0  0  0  0  0  0  0  0  0
  -29.5630   -9.3690  -28.3970 C   0  0  0  0  0  0  0  0  0  0  0  0
  -29.0050   -9.8860  -27.1120 C   0  0  0  0  0  0  0  0  0  0  0  0
  -27.5470  -10.1910  -27.2790 C   0  0  0  0  0  0  0  0  0  0  0  0
  -26.8280   -8.9420  -27.6700 C   0  0  0  0  0  0  0  0  0  0  0  0
  -30.5480   -9.7510  -28.7630 O   0  0  0  0  0  0  0  0  0  0  0  0
  1  2  2  0
  1  6  1  0
  1  3  1  0
  2  4  1  0
 12  3  1  1
  4  5  2  0
  5  6  1  0
  6  7  1  0
 12 13  1  0
 12 17  1  0
 13 14  1  0
 14 18  2  0
 14 15  1  0
 15 16  1  0
 16 17  1  0
  7  8  2  0
  7 10  1  0
  8  9  1  0
  9 11  1  0
 10 11  2  0
M  END
>  <name>  (116) 
Car Nac Nd0 Car Nac Nac Car Car O_a Car Car C3r C3r C2r C3r C3r C3r .=O

>  <indices>  (116) 
[0, 1, 2]

>  <tasks>  (116) 
probe_placing close_aromatic_ring close_aromatic_ring close_aromatic_ring ring_built build_to_Nac close_aromatic_ring close_aromatic_ring close_aromatic_ring close_aromatic_ring build_to_Nd0 close_aliphatic_ring close_aliphatic_ring close_aliphatic_ring close_aliphatic_ring close_aliphatic_ring

>  <prot_clashes>  (116) 
12

>  <NBS phar>  (116) 
0.22000000000000003

>  <NBS_non-phar>  (116) 
0.6382624308268229

>  <NBS>  (116) 
0.858262430826823

>  <source_stage>  (116) 
scored

>  <source_iter>  (116) 
15

>  <source_parent_mol>  (116) 
0

>  <source_scenario>  (116) 
1 2 3 1 4 0 5 1 0 0 1 0 0 1 0

>  <source_rank_in_scored_call>  (116) 
0

>  <source_current_task>  (116) 
build_DB_to_Cs2

>  <scenario>  (116) 
1 2 3 1 4 0 5 1 0 0 1 0 0 1

>  <protected_ring_attachments>  (116) 
1,0,5,6|0,5,6;3,1,0,2|1,0,2;3,4,5,6|4,5,6;4,5,0,2|5,0,2;13,12,11,2|12,11,2;15,16,11,2|16,11,2

>  <current_task>  (116) 
no_task

>  <rotatable_bond_torsions>  (116) 
1,0,2,11;0,2,11,12;0,5,6,7

$$$$

     RDKit          3D

 18 20  0  0  0  0  0  0  0  0999 V2000
  -27.6800   -6.7750  -30.8300 C   0  0  0  0  0  0  0  0  0  0  0  0
  -27.7940   -7.3590  -32.0570 N   0  0  0  0  0  0  0  0  0  0  0  0
  -27.0090   -7.5060  -29.6990 N   0  0  0  0  0  0  0  0  0  0  0  0
  -28.3970   -6.4890  -32.8880 C   0  0  0  0  0  0  0  0  0  0  0  0
  -28.6490   -5.3680  -32.1570 N   0  0  0  0  0  0  0  0  0  0  0  0
  -28.2160   -5.5440  -30.9220 N   0  0  0  0  0  0  0  0  0  0  0  0
  -28.2870   -4.5750  -29.8840 C   0  0  0  0  0  0  0  0  0  0  0  0
  -28.8150   -3.3170  -30.1390 C   0  0  0  0  0  0  0  0  0  0  0  0
  -28.8410   -2.6830  -28.9900 O   0  0  0  0  0  0  0  0  0  0  0  0
  -28.0040   -4.6480  -28.5290 C   0  0  0  0  0  0  0  0  0  0  0  0
  -28.3730   -3.4240  -28.0130 C   0  0  0  0  0  0  0  0  0  0  0  0
  -27.8250   -8.2620  -28.8690 C   0  0  1  0  0  0  0  0  0  0  0  0
  -27.6930   -9.7460  -29.1330 C   0  0  0  0  0  0  0  0  0  0  0  0
  -28.6330  -10.5140  -28.2360 C   0  0  0  0  0  0  0  0  0  0  0  0
  -28.2920  -10.2300  -26.8080 C   0  0  0  0  0  0  0  0  0  0  0  0
  -28.4290   -8.7730  -26.5260 C   0  0  0  0  0  0  0  0  0  0  0  0
  -27.4850   -7.9940  -27.4170 C   0  0  0  0  0  0  0  0  0  0  0  0
  -29.4050  -11.1400  -28.6120 O   0  0  0  0  0  0  0  0  0  0  0  0
  1  2  2  0
  1  6  1  0
  1  3  1  0
  2  4  1  0
 12  3  1  6
  4  5  2  0
  5  6  1  0
  6  7  1  0
 12 13  1  0
 12 17  1  0
 13 14  1  0
 14 18  2  0
 14 15  1  0
 15 16  1  0
 16 17  1  0
  7  8  2  0
  7 10  1  0
  8  9  1  0
  9 11  1  0
 10 11  2  0
M  END
>  <name>  (117) 
Car Nac Nd0 Car Nac Nac Car Car O_a Car Car C3r C3r C2r C3r C3r C3r .=O

>  <indices>  (117) 
[0, 1, 2]

>  <tasks>  (117) 
probe_placing close_aromatic_ring close_aromatic_ring close_aromatic_ring ring_built build_to_Nac close_aromatic_ring close_aromatic_ring close_aromatic_ring close_aromatic_ring build_to_Nd0 close_aliphatic_ring close_aliphatic_ring close_aliphatic_ring close_aliphatic_ring close_aliphatic_ring

>  <prot_clashes>  (117) 
10

>  <NBS phar>  (117) 
0.2800000000000001

>  <NBS_non-phar>  (117) 
0.5012583202785916

>  <NBS>  (117) 
0.7812583202785917

>  <source_stage>  (117) 
scored

>  <source_iter>  (117) 
15

>  <source_parent_mol>  (117) 
0

>  <source_scenario>  (117) 
1 2 3 1 4 0 5 1 0 1 1 1 3 0 0

>  <source_rank_in_scored_call>  (117) 
4

>  <source_current_task>  (117) 
build_DB_to_Cs2

>  <scenario>  (117) 
1 2 3 1 4 0 5 1 0 1 1 1 3 0

>  <protected_ring_attachments>  (117) 
1,0,5,6|0,5,6;3,1,0,2|1,0,2;3,4,5,6|4,5,6;4,5,0,2|5,0,2;13,12,11,2|12,11,2;15,16,11,2|16,11,2

>  <current_task>  (117) 
no_task

>  <rotatable_bond_torsions>  (117) 
1,0,2,11;0,2,11,12;0,5,6,7

$$$$

     RDKit          3D

 18 20  0  0  0  0  0  0  0  0999 V2000
  -27.6820   -6.7860  -30.8290 C   0  0  0  0  0  0  0  0  0  0  0  0
  -27.7950   -7.3700  -32.0560 N   0  0  0  0  0  0  0  0  0  0  0  0
  -27.0140   -7.5170  -29.6970 N   0  0  0  0  0  0  0  0  0  0  0  0
  -28.3960   -6.5000  -32.8880 C   0  0  0  0  0  0  0  0  0  0  0  0
  -28.6470   -5.3780  -32.1570 N   0  0  0  0  0  0  0  0  0  0  0  0
  -28.2170   -5.5550  -30.9220 N   0  0  0  0  0  0  0  0  0  0  0  0
  -28.2880   -4.5850  -29.8840 C   0  0  0  0  0  0  0  0  0  0  0  0
  -28.8140   -3.3270  -30.1410 C   0  0  0  0  0  0  0  0  0  0  0  0
  -28.8410   -2.6920  -28.9910 O   0  0  0  0  0  0  0  0  0  0  0  0
  -28.0070   -4.6580  -28.5280 C   0  0  0  0  0  0  0  0  0  0  0  0
  -28.3760   -3.4340  -28.0130 C   0  0  0  0  0  0  0  0  0  0  0  0
  -27.8320   -8.2730  -28.8680 C   0  0  1  0  0  0  0  0  0  0  0  0
  -27.7000   -9.7560  -29.1310 C   0  0  0  0  0  0  0  0  0  0  0  0
  -28.6420  -10.5240  -28.2350 C   0  0  0  0  0  0  0  0  0  0  0  0
  -28.3030  -10.2400  -26.8070 C   0  0  0  0  0  0  0  0  0  0  0  0
  -28.4390   -8.7820  -26.5260 C   0  0  0  0  0  0  0  0  0  0  0  0
  -27.4930   -8.0050  -27.4150 C   0  0  0  0  0  0  0  0  0  0  0  0
  -29.3470  -11.3700  -28.5170 O   0  0  0  0  0  0  0  0  0  0  0  0
  1  2  2  0
  1  6  1  0
  1  3  1  0
  2  4  1  0
 12  3  1  6
  4  5  2  0
  5  6  1  0
  6  7  1  0
 12 13  1  0
 12 17  1  0
 13 14  1  0
 14 18  2  0
 14 15  1  0
 15 16  1  0
 16 17  1  0
  7  8  2  0
  7 10  1  0
  8  9  1  0
  9 11  1  0
 10 11  2  0
M  END
>  <name>  (118) 
Car Nac Nd0 Car Nac Nac Car Car O_a Car Car C3r C3r C2r C3r C3r C3r .=O

>  <indices>  (118) 
[0, 1, 2]

>  <tasks>  (118) 
probe_placing close_aromatic_ring close_aromatic_ring close_aromatic_ring ring_built build_to_Nac close_aromatic_ring close_aromatic_ring close_aromatic_ring close_aromatic_ring build_to_Nd0 close_aliphatic_ring close_aliphatic_ring close_aliphatic_ring close_aliphatic_ring close_aliphatic_ring

>  <prot_clashes>  (118) 
10

>  <NBS phar>  (118) 
0.2800000000000001

>  <NBS_non-phar>  (118) 
0.499358336130778

>  <NBS>  (118) 
0.7793583361307781

>  <source_stage>  (118) 
scored

>  <source_iter>  (118) 
15

>  <source_parent_mol>  (118) 
0

>  <source_scenario>  (118) 
1 2 3 1 4 0 5 1 0 1 1 1 3 0 0

>  <source_rank_in_scored_call>  (118) 
5

>  <source_current_task>  (118) 
build_DB_to_Cs2

>  <scenario>  (118) 
1 2 3 1 4 0 5 1 0 1 1 1 3 0

>  <protected_ring_attachments>  (118) 
1,0,5,6|0,5,6;3,1,0,2|1,0,2;3,4,5,6|4,5,6;4,5,0,2|5,0,2;13,12,11,2|12,11,2;15,16,11,2|16,11,2

>  <current_task>  (118) 
no_task

>  <rotatable_bond_torsions>  (118) 
1,0,2,11;0,2,11,12;0,5,6,7

$$$$

     RDKit          3D

 17 19  0  0  0  0  0  0  0  0999 V2000
  -27.6650   -6.7710  -30.5010 C   0  0  0  0  0  0  0  0  0  0  0  0
  -27.5280   -7.4070  -31.7020 N   0  0  0  0  0  0  0  0  0  0  0  0
  -27.1600   -7.4120  -29.2380 N   0  0  0  0  0  0  0  0  0  0  0  0
  -28.0280   -6.6100  -32.6620 C   0  0  0  0  0  0  0  0  0  0  0  0
  -28.4680   -5.4830  -32.0430 N   0  0  0  0  0  0  0  0  0  0  0  0
  -28.2510   -5.5840  -30.7450 N   0  0  0  0  0  0  0  0  0  0  0  0
  -28.5600   -4.5820  -29.7830 C   0  0  0  0  0  0  0  0  0  0  0  0
  -29.1100   -3.3740  -30.1850 C   0  0  0  0  0  0  0  0  0  0  0  0
  -29.3740   -2.7000  -29.0900 O   0  0  0  0  0  0  0  0  0  0  0  0
  -28.5140   -4.5860  -28.3970 C   0  0  0  0  0  0  0  0  0  0  0  0
  -29.0430   -3.3700  -28.0130 C   0  0  0  0  0  0  0  0  0  0  0  0
  -28.0300   -8.3350  -28.4030 C   0  0  1  0  0  0  0  0  0  0  0  0
  -29.1860   -8.7900  -29.2390 C   0  0  0  0  0  0  0  0  0  0  0  0
  -30.1150   -9.6080  -28.3940 C   0  0  0  0  0  0  0  0  0  0  0  0
  -29.3780  -10.8220  -27.8390 C   0  0  0  0  0  0  0  0  0  0  0  0
  -28.2110  -10.3310  -26.9960 C   0  0  0  0  0  0  0  0  0  0  0  0
  -27.2780   -9.5000  -27.8590 C   0  0  0  0  0  0  0  0  0  0  0  0
  1  2  2  0
  1  6  1  0
  1  3  1  0
  2  4  1  0
 12  3  1  6
  4  5  2  0
  5  6  1  0
  6  7  1  0
 12 13  1  0
 12 17  1  0
 13 14  1  0
 14 15  1  0
 15 16  1  0
 16 17  1  0
  7  8  2  0
  7 10  1  0
  8  9  1  0
  9 11  1  0
 10 11  2  0
M  END
>  <name>  (119) 
Car Nac Nd0 Car Nac Nac Car Car O_a Car Car C3r C3r C3r C3r C3r C3r

>  <indices>  (119) 
[0, 1, 2]

>  <tasks>  (119) 
probe_placing close_aromatic_ring close_aromatic_ring close_aromatic_ring ring_built build_to_Nac close_aromatic_ring close_aromatic_ring close_aromatic_ring close_aromatic_ring build_to_Nd0 close_aliphatic_ring close_aliphatic_ring close_aliphatic_ring close_aliphatic_ring

>  <prot_clashes>  (119) 
10

>  <NBS phar>  (119) 
0.12

>  <NBS_non-phar>  (119) 
0.5641155242919922

>  <NBS>  (119) 
0.6841155242919922

>  <source_stage>  (119) 
scored

>  <source_iter>  (119) 
14

>  <source_parent_mol>  (119) 
2

>  <source_scenario>  (119) 
1 2 3 1 4 0 5 1 0 1 2 0 1 2

>  <source_rank_in_scored_call>  (119) 
0

>  <source_current_task>  (119) 
close_aliphatic_ring

>  <scenario>  (119) 
1 2 3 1 4 0 5 1 0 1 2 0 1

>  <protected_ring_attachments>  (119) 
1,0,5,6|0,5,6;3,1,0,2|1,0,2;3,4,5,6|4,5,6;4,5,0,2|5,0,2

>  <current_task>  (119) 
no_task

>  <rotatable_bond_torsions>  (119) 
1,0,2,11;0,2,11,12;0,5,6,7;2,11,12,13;11,12,13,14;12,13,14,15

$$$$

     RDKit          3D

 17 19  0  0  0  0  0  0  0  0999 V2000
  -28.7750   -7.0140  -30.8790 C   0  0  0  0  0  0  0  0  0  0  0  0
  -28.4520   -7.5900  -32.0740 N   0  0  0  0  0  0  0  0  0  0  0  0
  -29.3090   -7.8510  -29.7490 N   0  0  0  0  0  0  0  0  0  0  0  0
  -27.9720   -6.6350  -32.8890 C   0  0  0  0  0  0  0  0  0  0  0  0
  -28.0050   -5.4700  -32.1830 N   0  0  0  0  0  0  0  0  0  0  0  0
  -28.4890   -5.7020  -30.9790 N   0  0  0  0  0  0  0  0  0  0  0  0
  -28.6440   -4.7270  -29.9560 C   0  0  0  0  0  0  0  0  0  0  0  0
  -28.2470   -3.4160  -30.1780 C   0  0  0  0  0  0  0  0  0  0  0  0
  -28.5970   -2.7320  -29.1130 O   0  0  0  0  0  0  0  0  0  0  0  0
  -29.2440   -4.7800  -28.7080 C   0  0  0  0  0  0  0  0  0  0  0  0
  -29.1870   -3.4900  -28.2210 C   0  0  0  0  0  0  0  0  0  0  0  0
  -28.5490   -8.2510  -28.6480 C   0  0  0  0  0  0  0  0  0  0  0  0
  -27.2050   -7.9090  -28.5890 C   0  0  0  0  0  0  0  0  0  0  0  0
  -26.4360   -8.2350  -27.4650 C   0  0  0  0  0  0  0  0  0  0  0  0
  -27.0670   -8.9040  -26.4250 C   0  0  0  0  0  0  0  0  0  0  0  0
  -28.4040   -9.2370  -26.4980 C   0  0  0  0  0  0  0  0  0  0  0  0
  -29.1760   -8.9190  -27.6120 C   0  0  0  0  0  0  0  0  0  0  0  0
  1  2  2  0
  1  6  1  0
  1  3  1  0
  2  4  1  0
  3 12  1  0
  4  5  2  0
  5  6  1  0
  6  7  1  0
 12 13  2  0
 12 17  1  0
 13 14  1  0
 14 15  2  0
 15 16  1  0
 16 17  2  0
  7  8  2  0
  7 10  1  0
  8  9  1  0
  9 11  1  0
 10 11  2  0
M  END
>  <name>  (120) 
Car Nac Nd0 Car Nac Nac Car Car O_a Car Car Car Car Car Car Car Car

>  <indices>  (120) 
[0, 1, 2]

>  <tasks>  (120) 
probe_placing close_aromatic_ring close_aromatic_ring close_aromatic_ring ring_built build_to_Nac close_aromatic_ring close_aromatic_ring close_aromatic_ring close_aromatic_ring build_to_Nd0 close_aromatic_ring close_aromatic_ring close_aromatic_ring close_aromatic_ring

>  <prot_clashes>  (120) 
11

>  <NBS phar>  (120) 
0.13999999999999999

>  <NBS_non-phar>  (120) 
0.4436947317684398

>  <NBS>  (120) 
0.5836947317684398

>  <source_stage>  (120) 
scored

>  <source_iter>  (120) 
14

>  <source_parent_mol>  (120) 
1

>  <source_scenario>  (120) 
1 2 3 1 4 0 5 1 0 8 2 0 1 1

>  <source_rank_in_scored_call>  (120) 
1

>  <source_current_task>  (120) 
close_aromatic_ring

>  <scenario>  (120) 
1 2 3 1 4 0 5 1 0 8 2 0 1

>  <protected_ring_attachments>  (120) 
1,0,5,6|0,5,6;3,1,0,2|1,0,2;3,4,5,6|4,5,6;4,5,0,2|5,0,2

>  <current_task>  (120) 
no_task

>  <rotatable_bond_torsions>  (120) 
1,0,2,11;0,2,11,12;0,5,6,7;11,12,13,14

$$$$

     RDKit          3D

 18 20  0  0  0  0  0  0  0  0999 V2000
  -28.8040   -6.9410  -30.7110 C   0  0  0  0  0  0  0  0  0  0  0  0
  -28.4780   -7.5180  -31.9050 N   0  0  0  0  0  0  0  0  0  0  0  0
  -29.3600   -7.7750  -29.5890 N   0  0  0  0  0  0  0  0  0  0  0  0
  -27.9780   -6.5670  -32.7120 C   0  0  0  0  0  0  0  0  0  0  0  0
  -27.9990   -5.4040  -32.0020 N   0  0  0  0  0  0  0  0  0  0  0  0
  -28.4970   -5.6330  -30.8030 N   0  0  0  0  0  0  0  0  0  0  0  0
  -28.6480   -4.6600  -29.7780 C   0  0  0  0  0  0  0  0  0  0  0  0
  -28.2290   -3.3540  -29.9910 C   0  0  0  0  0  0  0  0  0  0  0  0
  -28.5790   -2.6690  -28.9280 O   0  0  0  0  0  0  0  0  0  0  0  0
  -29.2600   -4.7090  -28.5360 C   0  0  0  0  0  0  0  0  0  0  0  0
  -29.1880   -3.4210  -28.0440 C   0  0  0  0  0  0  0  0  0  0  0  0
  -28.5930   -8.1960  -28.4850 C   0  0  0  0  0  0  0  0  0  0  0  0
  -27.3180   -7.8630  -28.4520 C   0  0  0  0  0  0  0  0  0  0  0  0
  -26.5630   -8.2230  -27.2650 C   0  0  0  0  0  0  0  0  0  0  0  0
  -27.1260   -8.8580  -26.2590 C   0  0  0  0  0  0  0  0  0  0  0  0
  -28.5380   -9.2770  -26.1920 C   0  0  0  0  0  0  0  0  0  0  0  0
  -29.1930   -8.8770  -27.4050 N   0  0  0  0  0  0  0  0  0  0  0  0
  -29.0730   -9.8780  -25.2420 O   0  0  0  0  0  0  0  0  0  0  0  0
  1  2  2  0
  1  6  1  0
  1  3  1  0
  2  4  1  0
  3 12  1  0
  4  5  2  0
  5  6  1  0
  6  7  1  0
 12 13  2  0
 12 17  1  0
 13 14  1  0
 14 15  2  0
 15 16  1  0
 16 17  1  0
 16 18  2  0
  7  8  2  0
  7 10  1  0
  8  9  1  0
  9 11  1  0
 10 11  2  0
M  END
>  <name>  (121) 
Car Nac Nd0 Car Nac Nac Car Car O_a Car Car Car Car Car Car Car Nd0 .=O

>  <indices>  (121) 
[0, 1, 2]

>  <tasks>  (121) 
probe_placing close_aromatic_ring close_aromatic_ring close_aromatic_ring ring_built build_to_Nac close_aromatic_ring close_aromatic_ring close_aromatic_ring close_aromatic_ring build_to_Nd0 close_aromatic_ring close_aromatic_ring close_aromatic_ring close_aromatic_ring close_aromatic_ring

>  <prot_clashes>  (121) 
11

>  <NBS phar>  (121) 
0.22000000000000003

>  <NBS_non-phar>  (121) 
0.39795764287312824

>  <NBS>  (121) 
0.6179576428731283

>  <source_stage>  (121) 
scored

>  <source_iter>  (121) 
15

>  <source_parent_mol>  (121) 
0

>  <source_scenario>  (121) 
1 2 3 1 4 0 5 1 0 8 2 0 1 1 0

>  <source_rank_in_scored_call>  (121) 
7

>  <source_current_task>  (121) 
fix_Car

>  <scenario>  (121) 
1 2 3 1 4 0 5 1 0 8 2 0 1 1

>  <protected_ring_attachments>  (121) 
1,0,5,6|0,5,6;3,1,0,2|1,0,2;3,4,5,6|4,5,6;4,5,0,2|5,0,2;13,12,11,2|12,11,2;15,16,11,2|16,11,2

>  <current_task>  (121) 
no_task

>  <rotatable_bond_torsions>  (121) 
1,0,2,11;0,2,11,12;0,5,6,7

$$$$

     RDKit          3D

 20 23  0  0  0  0  0  0  0  0999 V2000
  -28.6620   -6.9670  -30.7060 C   0  0  0  0  0  0  0  0  0  0  0  0
  -28.2550   -7.5830  -31.8560 N   0  0  0  0  0  0  0  0  0  0  0  0
  -29.3060   -7.7610  -29.6030 N   0  0  0  0  0  0  0  0  0  0  0  0
  -27.6890   -6.6630  -32.6530 C   0  0  0  0  0  0  0  0  0  0  0  0
  -27.7510   -5.4770  -31.9820 N   0  0  0  0  0  0  0  0  0  0  0  0
  -28.3370   -5.6650  -30.8150 N   0  0  0  0  0  0  0  0  0  0  0  0
  -28.5510   -4.6600  -29.8340 C   0  0  0  0  0  0  0  0  0  0  0  0
  -28.1060   -3.3650  -30.0560 C   0  0  0  0  0  0  0  0  0  0  0  0
  -28.5250   -2.6440  -29.0420 O   0  0  0  0  0  0  0  0  0  0  0  0
  -29.2520   -4.6650  -28.6390 C   0  0  0  0  0  0  0  0  0  0  0  0
  -29.2040   -3.3650  -28.1830 C   0  0  0  0  0  0  0  0  0  0  0  0
  -28.6870   -8.1940  -28.3710 C   0  0  0  0  0  0  0  0  0  0  0  0
  -27.3350   -7.8700  -28.2090 C   0  0  0  0  0  0  0  0  0  0  0  0
  -26.6630   -8.1720  -27.0340 C   0  0  0  0  0  0  0  0  0  0  0  0
  -27.3410   -8.8010  -26.0120 C   0  0  0  0  0  0  0  0  0  0  0  0
  -28.7550   -9.1340  -26.1970 C   0  0  0  0  0  0  0  0  0  0  0  0
  -29.3520   -8.8150  -27.3600 N   0  0  0  0  0  0  0  0  0  0  0  0
  -29.1420   -9.7400  -25.0280 C   0  0  0  0  0  0  0  0  0  0  0  0
  -28.0640   -9.7900  -24.1690 C   0  0  0  0  0  0  0  0  0  0  0  0
  -26.9480   -9.2220  -24.7470 C   0  0  0  0  0  0  0  0  0  0  0  0
  1  2  2  0
  1  6  1  0
  1  3  1  0
  2  4  1  0
  3 12  1  0
  4  5  2  0
  5  6  1  0
  6  7  1  0
 12 13  2  0
 12 17  1  0
 13 14  1  0
 14 15  2  0
 15 16  1  0
 15 20  1  0
 16 17  1  0
 16 18  2  0
 18 19  1  0
 19 20  2  0
  7  8  2  0
  7 10  1  0
  8  9  1  0
  9 11  1  0
 10 11  2  0
M  END
>  <name>  (122) 
Car Nac Nd0 Car Nac Nac Car Car O_a Car Car Car Car Car Car Car Nd0 Car Car Car

>  <indices>  (122) 
[0, 1, 2]

>  <tasks>  (122) 
probe_placing close_aromatic_ring close_aromatic_ring close_aromatic_ring ring_built build_to_Nac close_aromatic_ring close_aromatic_ring close_aromatic_ring close_aromatic_ring build_to_Nd0 close_aromatic_ring close_aromatic_ring close_aromatic_ring close_aromatic_ring close_aromatic_ring fix_Car close_aromatic_ring

>  <prot_clashes>  (122) 
10

>  <NBS phar>  (122) 
0.22000000000000003

>  <NBS_non-phar>  (122) 
0.40151119232177734

>  <NBS>  (122) 
0.6215111923217773

>  <source_stage>  (122) 
scored

>  <source_iter>  (122) 
17

>  <source_parent_mol>  (122) 
2

>  <source_scenario>  (122) 
1 2 3 1 4 0 5 1 0 8 2 0 1 1 0 3 2

>  <source_rank_in_scored_call>  (122) 
2

>  <source_current_task>  (122) 
close_aromatic_ring

>  <scenario>  (122) 
1 2 3 1 4 0 5 1 0 8 2 0 1 1 0 3

>  <protected_ring_attachments>  (122) 
1,0,5,6|0,5,6;3,1,0,2|1,0,2;3,4,5,6|4,5,6;4,5,0,2|5,0,2;11,16,15,17|16,15,17;13,12,11,2|12,11,2;13,14,15,17|14,15,17;15,16,11,2|16,11,2

>  <current_task>  (122) 
no_task

>  <rotatable_bond_torsions>  (122) 
1,0,2,11;0,2,11,12;0,5,6,7

$$$$

     RDKit          3D

 19 21  0  0  0  0  0  0  0  0999 V2000
  -28.7170   -7.0110  -30.6760 C   0  0  0  0  0  0  0  0  0  0  0  0
  -28.2100   -7.5710  -31.8140 N   0  0  0  0  0  0  0  0  0  0  0  0
  -29.4070   -7.8660  -29.6490 N   0  0  0  0  0  0  0  0  0  0  0  0
  -27.6240   -6.6030  -32.5370 C   0  0  0  0  0  0  0  0  0  0  0  0
  -27.7740   -5.4460  -31.8330 N   0  0  0  0  0  0  0  0  0  0  0  0
  -28.4320   -5.6960  -30.7180 N   0  0  0  0  0  0  0  0  0  0  0  0
  -28.7510   -4.7340  -29.7210 C   0  0  0  0  0  0  0  0  0  0  0  0
  -28.3380   -3.4170  -29.8670 C   0  0  0  0  0  0  0  0  0  0  0  0
  -28.8530   -2.7490  -28.8620 O   0  0  0  0  0  0  0  0  0  0  0  0
  -29.5330   -4.8070  -28.5800 C   0  0  0  0  0  0  0  0  0  0  0  0
  -29.5630   -3.5210  -28.0770 C   0  0  0  0  0  0  0  0  0  0  0  0
  -28.7960   -8.2780  -28.4480 C   0  0  0  0  0  0  0  0  0  0  0  0
  -27.5470   -7.9150  -28.2320 C   0  0  0  0  0  0  0  0  0  0  0  0
  -26.9610   -8.2660  -26.9510 C   0  0  0  0  0  0  0  0  0  0  0  0
  -27.6460   -8.9220  -26.0380 C   0  0  0  0  0  0  0  0  0  0  0  0
  -29.0420   -9.3740  -26.1750 C   0  0  0  0  0  0  0  0  0  0  0  0
  -29.5270   -8.9810  -27.4680 N   0  0  0  0  0  0  0  0  0  0  0  0
  -29.6930   -9.9950  -25.3140 O   0  0  0  0  0  0  0  0  0  0  0  0
  -26.9420   -9.2370  -24.7410 C   0  0  0  0  0  0  0  0  0  0  0  0
  1  2  2  0
  1  6  1  0
  1  3  1  0
  2  4  1  0
  3 12  1  0
  4  5  2  0
  5  6  1  0
  6  7  1  0
 12 13  2  0
 12 17  1  0
 13 14  1  0
 14 15  2  0
 15 16  1  0
 15 19  1  0
 16 17  1  0
 16 18  2  0
  7  8  2  0
  7 10  1  0
  8  9  1  0
  9 11  1  0
 10 11  2  0
M  END
>  <name>  (123) 
Car Nac Nd0 Car Nac Nac Car Car O_a Car Car Car Car Car Car Car Nd0 .=O Cs3

>  <indices>  (123) 
[0, 1, 2]

>  <tasks>  (123) 
probe_placing close_aromatic_ring close_aromatic_ring close_aromatic_ring ring_built build_to_Nac close_aromatic_ring close_aromatic_ring close_aromatic_ring close_aromatic_ring build_to_Nd0 close_aromatic_ring close_aromatic_ring close_aromatic_ring close_aromatic_ring close_aromatic_ring fix_Car

>  <prot_clashes>  (123) 
11

>  <NBS phar>  (123) 
0.24

>  <NBS_non-phar>  (123) 
0.3859781716999255

>  <NBS>  (123) 
0.6259781716999255

>  <source_stage>  (123) 
scored

>  <source_iter>  (123) 
16

>  <source_parent_mol>  (123) 
7

>  <source_scenario>  (123) 
1 2 3 1 4 0 5 1 0 8 2 0 1 1 0 7

>  <source_rank_in_scored_call>  (123) 
5

>  <source_current_task>  (123) 
no_task

>  <scenario>  (123) 
1 2 3 1 4 0 5 1 0 8 2 0 1 1 0

>  <protected_ring_attachments>  (123) 
1,0,5,6|0,5,6;3,1,0,2|1,0,2;3,4,5,6|4,5,6;4,5,0,2|5,0,2;13,12,11,2|12,11,2;15,16,11,2|16,11,2

>  <current_task>  (123) 
no_task

>  <rotatable_bond_torsions>  (123) 
1,0,2,11;0,2,11,12;0,5,6,7

$$$$

     RDKit          3D

 18 20  0  0  0  0  0  0  0  0999 V2000
  -28.7630   -6.9900  -30.8860 C   0  0  0  0  0  0  0  0  0  0  0  0
  -28.4330   -7.5620  -32.0810 N   0  0  0  0  0  0  0  0  0  0  0  0
  -29.3050   -7.8300  -29.7620 N   0  0  0  0  0  0  0  0  0  0  0  0
  -27.9460   -6.6050  -32.8890 C   0  0  0  0  0  0  0  0  0  0  0  0
  -27.9830   -5.4430  -32.1800 N   0  0  0  0  0  0  0  0  0  0  0  0
  -28.4750   -5.6780  -30.9800 N   0  0  0  0  0  0  0  0  0  0  0  0
  -28.6360   -4.7060  -29.9550 C   0  0  0  0  0  0  0  0  0  0  0  0
  -28.2360   -3.3950  -30.1700 C   0  0  0  0  0  0  0  0  0  0  0  0
  -28.5920   -2.7140  -29.1050 O   0  0  0  0  0  0  0  0  0  0  0  0
  -29.2440   -4.7630  -28.7110 C   0  0  0  0  0  0  0  0  0  0  0  0
  -29.1890   -3.4740  -28.2190 C   0  0  0  0  0  0  0  0  0  0  0  0
  -28.5530   -8.2350  -28.6580 C   0  0  0  0  0  0  0  0  0  0  0  0
  -27.2090   -7.8940  -28.5890 C   0  0  0  0  0  0  0  0  0  0  0  0
  -26.4480   -8.2250  -27.4610 C   0  0  0  0  0  0  0  0  0  0  0  0
  -27.0870   -8.8960  -26.4270 C   0  0  0  0  0  0  0  0  0  0  0  0
  -28.4240   -9.2280  -26.5100 C   0  0  0  0  0  0  0  0  0  0  0  0
  -29.1880   -8.9050  -27.6280 C   0  0  0  0  0  0  0  0  0  0  0  0
  -29.0730   -9.9580  -25.3610 C   0  0  0  0  0  0  0  0  0  0  0  0
  1  2  2  0
  1  6  1  0
  1  3  1  0
  2  4  1  0
  3 12  1  0
  4  5  2  0
  5  6  1  0
  6  7  1  0
 12 13  2  0
 12 17  1  0
 13 14  1  0
 14 15  2  0
 15 16  1  0
 16 17  2  0
 16 18  1  0
  7  8  2  0
  7 10  1  0
  8  9  1  0
  9 11  1  0
 10 11  2  0
M  END
>  <name>  (124) 
Car Nac Nd0 Car Nac Nac Car Car O_a Car Car Car Car Car Car Car Car Cs3

>  <indices>  (124) 
[0, 1, 2]

>  <tasks>  (124) 
probe_placing close_aromatic_ring close_aromatic_ring close_aromatic_ring ring_built build_to_Nac close_aromatic_ring close_aromatic_ring close_aromatic_ring close_aromatic_ring build_to_Nd0 close_aromatic_ring close_aromatic_ring close_aromatic_ring close_aromatic_ring close_aromatic_ring

>  <prot_clashes>  (124) 
11

>  <NBS phar>  (124) 
0.13999999999999999

>  <NBS_non-phar>  (124) 
0.47552898195054794

>  <NBS>  (124) 
0.615528981950548

>  <source_stage>  (124) 
scored

>  <source_iter>  (124) 
15

>  <source_parent_mol>  (124) 
1

>  <source_scenario>  (124) 
1 2 3 1 4 0 5 1 0 8 2 0 1 1 1

>  <source_rank_in_scored_call>  (124) 
5

>  <source_current_task>  (124) 
no_task

>  <scenario>  (124) 
1 2 3 1 4 0 5 1 0 8 2 0 1 1

>  <protected_ring_attachments>  (124) 
1,0,5,6|0,5,6;3,1,0,2|1,0,2;3,4,5,6|4,5,6;4,5,0,2|5,0,2;13,12,11,2|12,11,2;15,16,11,2|16,11,2

>  <current_task>  (124) 
no_task

>  <rotatable_bond_torsions>  (124) 
1,0,2,11;0,2,11,12;0,5,6,7

$$$$

     RDKit          3D

 18 20  0  0  0  0  0  0  0  0999 V2000
  -28.6530   -7.0320  -30.8360 C   0  0  0  0  0  0  0  0  0  0  0  0
  -28.1180   -7.5280  -31.9890 N   0  0  0  0  0  0  0  0  0  0  0  0
  -29.3730   -7.9410  -29.8770 N   0  0  0  0  0  0  0  0  0  0  0  0
  -27.5090   -6.5230  -32.6410 C   0  0  0  0  0  0  0  0  0  0  0  0
  -27.6770   -5.4070  -31.8770 N   0  0  0  0  0  0  0  0  0  0  0  0
  -28.3660   -5.7170  -30.7960 N   0  0  0  0  0  0  0  0  0  0  0  0
  -28.7090   -4.8120  -29.7550 C   0  0  0  0  0  0  0  0  0  0  0  0
  -28.2900   -3.4910  -29.8160 C   0  0  0  0  0  0  0  0  0  0  0  0
  -28.8300   -2.8780  -28.7870 O   0  0  0  0  0  0  0  0  0  0  0  0
  -29.5210   -4.9460  -28.6400 C   0  0  0  0  0  0  0  0  0  0  0  0
  -29.5630   -3.6920  -28.0670 C   0  0  0  0  0  0  0  0  0  0  0  0
  -28.8170   -8.4160  -28.6870 C   0  0  0  0  0  0  0  0  0  0  0  0
  -27.5080   -8.0830  -28.3670 C   0  0  0  0  0  0  0  0  0  0  0  0
  -26.9490   -8.4850  -27.1480 C   0  0  0  0  0  0  0  0  0  0  0  0
  -27.7490   -9.2200  -26.2830 C   0  0  0  0  0  0  0  0  0  0  0  0
  -29.0490   -9.5430  -26.6150 C   0  0  0  0  0  0  0  0  0  0  0  0
  -29.6130   -9.1490  -27.8260 C   0  0  0  0  0  0  0  0  0  0  0  0
  -27.1870   -9.6730  -24.9580 C   0  0  0  0  0  0  0  0  0  0  0  0
  1  2  2  0
  1  6  1  0
  1  3  1  0
  2  4  1  0
  3 12  1  0
  4  5  2  0
  5  6  1  0
  6  7  1  0
 12 13  2  0
 12 17  1  0
 13 14  1  0
 14 15  2  0
 15 16  1  0
 15 18  1  0
 16 17  2  0
  7  8  2  0
  7 10  1  0
  8  9  1  0
  9 11  1  0
 10 11  2  0
M  END
>  <name>  (125) 
Car Nac Nd0 Car Nac Nac Car Car O_a Car Car Car Car Car Car Car Car Cs3

>  <indices>  (125) 
[0, 1, 2]

>  <tasks>  (125) 
probe_placing close_aromatic_ring close_aromatic_ring close_aromatic_ring ring_built build_to_Nac close_aromatic_ring close_aromatic_ring close_aromatic_ring close_aromatic_ring build_to_Nd0 close_aromatic_ring close_aromatic_ring close_aromatic_ring close_aromatic_ring close_aromatic_ring

>  <prot_clashes>  (125) 
12

>  <NBS phar>  (125) 
0.13999999999999999

>  <NBS_non-phar>  (125) 
0.36648697323269314

>  <NBS>  (125) 
0.5064869732326931

>  <source_stage>  (125) 
scored

>  <source_iter>  (125) 
15

>  <source_parent_mol>  (125) 
1

>  <source_scenario>  (125) 
1 2 3 1 4 0 5 1 0 8 2 0 1 1 1

>  <source_rank_in_scored_call>  (125) 
26

>  <source_current_task>  (125) 
no_task

>  <scenario>  (125) 
1 2 3 1 4 0 5 1 0 8 2 0 1 1

>  <protected_ring_attachments>  (125) 
1,0,5,6|0,5,6;3,1,0,2|1,0,2;3,4,5,6|4,5,6;4,5,0,2|5,0,2;13,12,11,2|12,11,2;15,16,11,2|16,11,2

>  <current_task>  (125) 
no_task

>  <rotatable_bond_torsions>  (125) 
1,0,2,11;0,2,11,12;0,5,6,7

$$$$

     RDKit          3D

 19 21  0  0  0  0  0  0  0  0999 V2000
  -28.6730   -7.0220  -30.9570 C   0  0  0  0  0  0  0  0  0  0  0  0
  -28.1960   -7.4400  -32.1660 N   0  0  0  0  0  0  0  0  0  0  0  0
  -29.2660   -8.0080  -29.9880 N   0  0  0  0  0  0  0  0  0  0  0  0
  -27.6950   -6.3750  -32.8150 C   0  0  0  0  0  0  0  0  0  0  0  0
  -27.8720   -5.3020  -31.9950 N   0  0  0  0  0  0  0  0  0  0  0  0
  -28.4600   -5.6940  -30.8830 N   0  0  0  0  0  0  0  0  0  0  0  0
  -28.7790   -4.8520  -29.7820 C   0  0  0  0  0  0  0  0  0  0  0  0
  -28.4430   -3.5060  -29.8170 C   0  0  0  0  0  0  0  0  0  0  0  0
  -28.9400   -2.9670  -28.7270 O   0  0  0  0  0  0  0  0  0  0  0  0
  -29.4970   -5.0780  -28.6190 C   0  0  0  0  0  0  0  0  0  0  0  0
  -29.5700   -3.8500  -27.9910 C   0  0  0  0  0  0  0  0  0  0  0  0
  -28.5980   -8.4940  -28.8630 C   0  0  0  0  0  0  0  0  0  0  0  0
  -27.2910   -8.0930  -28.6220 C   0  0  0  0  0  0  0  0  0  0  0  0
  -26.6220   -8.5070  -27.4640 C   0  0  0  0  0  0  0  0  0  0  0  0
  -27.3130   -9.3210  -26.5770 C   0  0  0  0  0  0  0  0  0  0  0  0
  -28.6120   -9.7110  -26.8290 C   0  0  0  0  0  0  0  0  0  0  0  0
  -29.2850   -9.3060  -27.9780 C   0  0  0  0  0  0  0  0  0  0  0  0
  -29.3200  -10.5960  -25.8350 C   0  0  0  0  0  0  0  0  0  0  0  0
  -30.7780  -10.9240  -26.1510 C   0  0  0  0  0  0  0  0  0  0  0  0
  1  2  2  0
  1  6  1  0
  1  3  1  0
  2  4  1  0
  3 12  1  0
  4  5  2  0
  5  6  1  0
  6  7  1  0
 12 13  2  0
 12 17  1  0
 13 14  1  0
 14 15  2  0
 15 16  1  0
 16 17  2  0
 16 18  1  0
 18 19  1  0
  7  8  2  0
  7 10  1  0
  8  9  1  0
  9 11  1  0
 10 11  2  0
M  END
>  <name>  (126) 
Car Nac Nd0 Car Nac Nac Car Car O_a Car Car Car Car Car Car Car Car Cs3 Cs3

>  <indices>  (126) 
[0, 1, 2]

>  <tasks>  (126) 
probe_placing close_aromatic_ring close_aromatic_ring close_aromatic_ring ring_built build_to_Nac close_aromatic_ring close_aromatic_ring close_aromatic_ring close_aromatic_ring build_to_Nd0 close_aromatic_ring close_aromatic_ring close_aromatic_ring close_aromatic_ring close_aromatic_ring no_task

>  <prot_clashes>  (126) 
12

>  <NBS phar>  (126) 
0.22000000000000003

>  <NBS_non-phar>  (126) 
0.4728314751072934

>  <NBS>  (126) 
0.6928314751072935

>  <source_stage>  (126) 
scored

>  <source_iter>  (126) 
16

>  <source_parent_mol>  (126) 
5

>  <source_scenario>  (126) 
1 2 3 1 4 0 5 1 0 8 2 0 1 1 1 5

>  <source_rank_in_scored_call>  (126) 
4

>  <source_current_task>  (126) 
no_task

>  <scenario>  (126) 
1 2 3 1 4 0 5 1 0 8 2 0 1 1 1

>  <protected_ring_attachments>  (126) 
1,0,5,6|0,5,6;3,1,0,2|1,0,2;3,4,5,6|4,5,6;4,5,0,2|5,0,2;13,12,11,2|12,11,2;15,16,11,2|16,11,2

>  <current_task>  (126) 
no_task

>  <rotatable_bond_torsions>  (126) 
1,0,2,11;0,2,11,12;0,5,6,7

$$$$

     RDKit          3D

 19 21  0  0  0  0  0  0  0  0999 V2000
  -28.7640   -6.9820  -30.8820 C   0  0  0  0  0  0  0  0  0  0  0  0
  -28.4350   -7.5620  -32.0730 N   0  0  0  0  0  0  0  0  0  0  0  0
  -29.3060   -7.8140  -29.7520 N   0  0  0  0  0  0  0  0  0  0  0  0
  -27.9480   -6.6110  -32.8880 C   0  0  0  0  0  0  0  0  0  0  0  0
  -27.9850   -5.4440  -32.1870 N   0  0  0  0  0  0  0  0  0  0  0  0
  -28.4760   -5.6710  -30.9850 N   0  0  0  0  0  0  0  0  0  0  0  0
  -28.6360   -4.6920  -29.9670 C   0  0  0  0  0  0  0  0  0  0  0  0
  -28.2360   -3.3820  -30.1910 C   0  0  0  0  0  0  0  0  0  0  0  0
  -28.5920   -2.6940  -29.1300 O   0  0  0  0  0  0  0  0  0  0  0  0
  -29.2440   -4.7400  -28.7220 C   0  0  0  0  0  0  0  0  0  0  0  0
  -29.1880   -3.4480  -28.2390 C   0  0  0  0  0  0  0  0  0  0  0  0
  -28.5530   -8.2120  -28.6460 C   0  0  0  0  0  0  0  0  0  0  0  0
  -27.2090   -7.8710  -28.5800 C   0  0  0  0  0  0  0  0  0  0  0  0
  -26.4480   -8.1940  -27.4500 C   0  0  0  0  0  0  0  0  0  0  0  0
  -27.0860   -8.8580  -26.4110 C   0  0  0  0  0  0  0  0  0  0  0  0
  -28.4240   -9.1900  -26.4910 C   0  0  0  0  0  0  0  0  0  0  0  0
  -29.1880   -8.8750  -27.6110 C   0  0  0  0  0  0  0  0  0  0  0  0
  -29.0720   -9.9120  -25.3370 C   0  0  0  0  0  0  0  0  0  0  0  0
  -28.1010   -9.7820  -24.0880 C   0  0  0  0  0  0  0  0  0  0  0  0
  1  2  2  0
  1  6  1  0
  1  3  1  0
  2  4  1  0
  3 12  1  0
  4  5  2  0
  5  6  1  0
  6  7  1  0
 12 13  2  0
 12 17  1  0
 13 14  1  0
 14 15  2  0
 15 16  1  0
 16 17  2  0
 16 18  1  0
 18 19  1  0
  7  8  2  0
  7 10  1  0
  8  9  1  0
  9 11  1  0
 10 11  2  0
M  END
>  <name>  (127) 
Car Nac Nd0 Car Nac Nac Car Car O_a Car Car Car Car Car Car Car Car Cs3 Cs3

>  <indices>  (127) 
[0, 1, 2]

>  <tasks>  (127) 
probe_placing close_aromatic_ring close_aromatic_ring close_aromatic_ring ring_built build_to_Nac close_aromatic_ring close_aromatic_ring close_aromatic_ring close_aromatic_ring build_to_Nd0 close_aromatic_ring close_aromatic_ring close_aromatic_ring close_aromatic_ring close_aromatic_ring no_task

>  <prot_clashes>  (127) 
11

>  <NBS phar>  (127) 
0.13999999999999999

>  <NBS_non-phar>  (127) 
0.5003551181993986

>  <NBS>  (127) 
0.6403551181993986

>  <source_stage>  (127) 
scored

>  <source_iter>  (127) 
16

>  <source_parent_mol>  (127) 
5

>  <source_scenario>  (127) 
1 2 3 1 4 0 5 1 0 8 2 0 1 1 1 5

>  <source_rank_in_scored_call>  (127) 
20

>  <source_current_task>  (127) 
no_task

>  <scenario>  (127) 
1 2 3 1 4 0 5 1 0 8 2 0 1 1 1

>  <protected_ring_attachments>  (127) 
1,0,5,6|0,5,6;3,1,0,2|1,0,2;3,4,5,6|4,5,6;4,5,0,2|5,0,2;13,12,11,2|12,11,2;15,16,11,2|16,11,2

>  <current_task>  (127) 
no_task

>  <rotatable_bond_torsions>  (127) 
1,0,2,11;0,2,11,12;0,5,6,7

$$$$

     RDKit          3D

 19 21  0  0  0  0  0  0  0  0999 V2000
  -28.7620   -6.9770  -30.8850 C   0  0  0  0  0  0  0  0  0  0  0  0
  -28.4300   -7.5570  -32.0750 N   0  0  0  0  0  0  0  0  0  0  0  0
  -29.3090   -7.8090  -29.7570 N   0  0  0  0  0  0  0  0  0  0  0  0
  -27.9400   -6.6060  -32.8880 C   0  0  0  0  0  0  0  0  0  0  0  0
  -27.9760   -5.4390  -32.1870 N   0  0  0  0  0  0  0  0  0  0  0  0
  -28.4720   -5.6660  -30.9860 N   0  0  0  0  0  0  0  0  0  0  0  0
  -28.6330   -4.6870  -29.9680 C   0  0  0  0  0  0  0  0  0  0  0  0
  -28.2310   -3.3780  -30.1900 C   0  0  0  0  0  0  0  0  0  0  0  0
  -28.5880   -2.6900  -29.1300 O   0  0  0  0  0  0  0  0  0  0  0  0
  -29.2450   -4.7360  -28.7250 C   0  0  0  0  0  0  0  0  0  0  0  0
  -29.1890   -3.4440  -28.2410 C   0  0  0  0  0  0  0  0  0  0  0  0
  -28.5600   -8.2080  -28.6490 C   0  0  0  0  0  0  0  0  0  0  0  0
  -27.2160   -7.8690  -28.5780 C   0  0  0  0  0  0  0  0  0  0  0  0
  -26.4580   -8.1950  -27.4460 C   0  0  0  0  0  0  0  0  0  0  0  0
  -27.1010   -8.8580  -26.4100 C   0  0  0  0  0  0  0  0  0  0  0  0
  -28.4380   -9.1880  -26.4940 C   0  0  0  0  0  0  0  0  0  0  0  0
  -29.1990   -8.8710  -27.6160 C   0  0  0  0  0  0  0  0  0  0  0  0
  -29.0910   -9.9100  -25.3420 C   0  0  0  0  0  0  0  0  0  0  0  0
  -28.1740  -10.2840  -24.1810 C   0  0  0  0  0  0  0  0  0  0  0  0
  1  2  2  0
  1  6  1  0
  1  3  1  0
  2  4  1  0
  3 12  1  0
  4  5  2  0
  5  6  1  0
  6  7  1  0
 12 13  2  0
 12 17  1  0
 13 14  1  0
 14 15  2  0
 15 16  1  0
 16 17  2  0
 16 18  1  0
 18 19  1  0
  7  8  2  0
  7 10  1  0
  8  9  1  0
  9 11  1  0
 10 11  2  0
M  END
>  <name>  (128) 
Car Nac Nd0 Car Nac Nac Car Car O_a Car Car Car Car Car Car Car Car Cs3 Cs3

>  <indices>  (128) 
[0, 1, 2]

>  <tasks>  (128) 
probe_placing close_aromatic_ring close_aromatic_ring close_aromatic_ring ring_built build_to_Nac close_aromatic_ring close_aromatic_ring close_aromatic_ring close_aromatic_ring build_to_Nd0 close_aromatic_ring close_aromatic_ring close_aromatic_ring close_aromatic_ring close_aromatic_ring no_task

>  <prot_clashes>  (128) 
11

>  <NBS phar>  (128) 
0.13999999999999999

>  <NBS_non-phar>  (128) 
0.4983570199263723

>  <NBS>  (128) 
0.6383570199263723

>  <source_stage>  (128) 
scored

>  <source_iter>  (128) 
16

>  <source_parent_mol>  (128) 
5

>  <source_scenario>  (128) 
1 2 3 1 4 0 5 1 0 8 2 0 1 1 1 5

>  <source_rank_in_scored_call>  (128) 
21

>  <source_current_task>  (128) 
no_task

>  <scenario>  (128) 
1 2 3 1 4 0 5 1 0 8 2 0 1 1 1

>  <protected_ring_attachments>  (128) 
1,0,5,6|0,5,6;3,1,0,2|1,0,2;3,4,5,6|4,5,6;4,5,0,2|5,0,2;13,12,11,2|12,11,2;15,16,11,2|16,11,2

>  <current_task>  (128) 
no_task

>  <rotatable_bond_torsions>  (128) 
1,0,2,11;0,2,11,12;0,5,6,7

$$$$

     RDKit          3D

 19 21  0  0  0  0  0  0  0  0999 V2000
  -28.7650   -6.9800  -30.8820 C   0  0  0  0  0  0  0  0  0  0  0  0
  -28.4350   -7.5590  -32.0740 N   0  0  0  0  0  0  0  0  0  0  0  0
  -29.3060   -7.8130  -29.7530 N   0  0  0  0  0  0  0  0  0  0  0  0
  -27.9490   -6.6070  -32.8880 C   0  0  0  0  0  0  0  0  0  0  0  0
  -27.9860   -5.4410  -32.1860 N   0  0  0  0  0  0  0  0  0  0  0  0
  -28.4770   -5.6690  -30.9840 N   0  0  0  0  0  0  0  0  0  0  0  0
  -28.6380   -4.6900  -29.9650 C   0  0  0  0  0  0  0  0  0  0  0  0
  -28.2380   -3.3810  -30.1880 C   0  0  0  0  0  0  0  0  0  0  0  0
  -28.5940   -2.6930  -29.1270 O   0  0  0  0  0  0  0  0  0  0  0  0
  -29.2450   -4.7400  -28.7200 C   0  0  0  0  0  0  0  0  0  0  0  0
  -29.1900   -3.4480  -28.2360 C   0  0  0  0  0  0  0  0  0  0  0  0
  -28.5530   -8.2110  -28.6470 C   0  0  0  0  0  0  0  0  0  0  0  0
  -27.2090   -7.8700  -28.5810 C   0  0  0  0  0  0  0  0  0  0  0  0
  -26.4470   -8.1940  -27.4510 C   0  0  0  0  0  0  0  0  0  0  0  0
  -27.0850   -8.8590  -26.4130 C   0  0  0  0  0  0  0  0  0  0  0  0
  -28.4220   -9.1910  -26.4930 C   0  0  0  0  0  0  0  0  0  0  0  0
  -29.1870   -8.8750  -27.6120 C   0  0  0  0  0  0  0  0  0  0  0  0
  -29.0700   -9.9150  -25.3390 C   0  0  0  0  0  0  0  0  0  0  0  0
  -29.4950   -9.1220  -24.1280 C   0  0  0  0  0  0  0  0  0  0  0  0
  1  2  2  0
  1  6  1  0
  1  3  1  0
  2  4  1  0
  3 12  1  0
  4  5  2  0
  5  6  1  0
  6  7  1  0
 12 13  2  0
 12 17  1  0
 13 14  1  0
 14 15  2  0
 15 16  1  0
 16 17  2  0
 16 18  1  0
 18 19  1  0
  7  8  2  0
  7 10  1  0
  8  9  1  0
  9 11  1  0
 10 11  2  0
M  END
>  <name>  (129) 
Car Nac Nd0 Car Nac Nac Car Car O_a Car Car Car Car Car Car Car Car Cs3 Cs3

>  <indices>  (129) 
[0, 1, 2]

>  <tasks>  (129) 
probe_placing close_aromatic_ring close_aromatic_ring close_aromatic_ring ring_built build_to_Nac close_aromatic_ring close_aromatic_ring close_aromatic_ring close_aromatic_ring build_to_Nd0 close_aromatic_ring close_aromatic_ring close_aromatic_ring close_aromatic_ring close_aromatic_ring no_task

>  <prot_clashes>  (129) 
11

>  <NBS phar>  (129) 
0.13999999999999999

>  <NBS_non-phar>  (129) 
0.4972115566855983

>  <NBS>  (129) 
0.6372115566855983

>  <source_stage>  (129) 
scored

>  <source_iter>  (129) 
16

>  <source_parent_mol>  (129) 
5

>  <source_scenario>  (129) 
1 2 3 1 4 0 5 1 0 8 2 0 1 1 1 5

>  <source_rank_in_scored_call>  (129) 
24

>  <source_current_task>  (129) 
no_task

>  <scenario>  (129) 
1 2 3 1 4 0 5 1 0 8 2 0 1 1 1

>  <protected_ring_attachments>  (129) 
1,0,5,6|0,5,6;3,1,0,2|1,0,2;3,4,5,6|4,5,6;4,5,0,2|5,0,2;13,12,11,2|12,11,2;15,16,11,2|16,11,2

>  <current_task>  (129) 
no_task

>  <rotatable_bond_torsions>  (129) 
1,0,2,11;0,2,11,12;0,5,6,7

$$$$

     RDKit          3D

 19 21  0  0  0  0  0  0  0  0999 V2000
  -28.7640   -6.9890  -30.8870 C   0  0  0  0  0  0  0  0  0  0  0  0
  -28.4350   -7.5550  -32.0850 N   0  0  0  0  0  0  0  0  0  0  0  0
  -29.3060   -7.8340  -29.7670 N   0  0  0  0  0  0  0  0  0  0  0  0
  -27.9480   -6.5950  -32.8880 C   0  0  0  0  0  0  0  0  0  0  0  0
  -27.9840   -5.4360  -32.1730 N   0  0  0  0  0  0  0  0  0  0  0  0
  -28.4760   -5.6770  -30.9740 N   0  0  0  0  0  0  0  0  0  0  0  0
  -28.6360   -4.7100  -29.9450 C   0  0  0  0  0  0  0  0  0  0  0  0
  -28.2360   -3.3980  -30.1530 C   0  0  0  0  0  0  0  0  0  0  0  0
  -28.5920   -2.7220  -29.0850 O   0  0  0  0  0  0  0  0  0  0  0  0
  -29.2440   -4.7730  -28.7010 C   0  0  0  0  0  0  0  0  0  0  0  0
  -29.1880   -3.4860  -28.2020 C   0  0  0  0  0  0  0  0  0  0  0  0
  -28.5540   -8.2450  -28.6650 C   0  0  0  0  0  0  0  0  0  0  0  0
  -27.2090   -7.9050  -28.5950 C   0  0  0  0  0  0  0  0  0  0  0  0
  -26.4480   -8.2410  -27.4690 C   0  0  0  0  0  0  0  0  0  0  0  0
  -27.0870   -8.9170  -26.4380 C   0  0  0  0  0  0  0  0  0  0  0  0
  -28.4240   -9.2480  -26.5220 C   0  0  0  0  0  0  0  0  0  0  0  0
  -29.1880   -8.9200  -27.6380 C   0  0  0  0  0  0  0  0  0  0  0  0
  -29.0730   -9.9840  -25.3760 C   0  0  0  0  0  0  0  0  0  0  0  0
  -30.4560  -10.5660  -25.9010 C   0  0  0  0  0  0  0  0  0  0  0  0
  1  2  2  0
  1  6  1  0
  1  3  1  0
  2  4  1  0
  3 12  1  0
  4  5  2  0
  5  6  1  0
  6  7  1  0
 12 13  2  0
 12 17  1  0
 13 14  1  0
 14 15  2  0
 15 16  1  0
 16 17  2  0
 16 18  1  0
 18 19  1  0
  7  8  2  0
  7 10  1  0
  8  9  1  0
  9 11  1  0
 10 11  2  0
M  END
>  <name>  (130) 
Car Nac Nd0 Car Nac Nac Car Car O_a Car Car Car Car Car Car Car Car Cs3 Cs3

>  <indices>  (130) 
[0, 1, 2]

>  <tasks>  (130) 
probe_placing close_aromatic_ring close_aromatic_ring close_aromatic_ring ring_built build_to_Nac close_aromatic_ring close_aromatic_ring close_aromatic_ring close_aromatic_ring build_to_Nd0 close_aromatic_ring close_aromatic_ring close_aromatic_ring close_aromatic_ring close_aromatic_ring no_task

>  <prot_clashes>  (130) 
11

>  <NBS phar>  (130) 
0.13999999999999999

>  <NBS_non-phar>  (130) 
0.4968904696012798

>  <NBS>  (130) 
0.6368904696012798

>  <source_stage>  (130) 
scored

>  <source_iter>  (130) 
16

>  <source_parent_mol>  (130) 
5

>  <source_scenario>  (130) 
1 2 3 1 4 0 5 1 0 8 2 0 1 1 1 5

>  <source_rank_in_scored_call>  (130) 
25

>  <source_current_task>  (130) 
no_task

>  <scenario>  (130) 
1 2 3 1 4 0 5 1 0 8 2 0 1 1 1

>  <protected_ring_attachments>  (130) 
1,0,5,6|0,5,6;3,1,0,2|1,0,2;3,4,5,6|4,5,6;4,5,0,2|5,0,2;13,12,11,2|12,11,2;15,16,11,2|16,11,2

>  <current_task>  (130) 
no_task

>  <rotatable_bond_torsions>  (130) 
1,0,2,11;0,2,11,12;0,5,6,7

$$$$

     RDKit          3D

 19 21  0  0  0  0  0  0  0  0999 V2000
  -28.7630   -6.9790  -30.8830 C   0  0  0  0  0  0  0  0  0  0  0  0
  -28.4340   -7.5590  -32.0740 N   0  0  0  0  0  0  0  0  0  0  0  0
  -29.3050   -7.8110  -29.7530 N   0  0  0  0  0  0  0  0  0  0  0  0
  -27.9460   -6.6070  -32.8880 C   0  0  0  0  0  0  0  0  0  0  0  0
  -27.9830   -5.4400  -32.1870 N   0  0  0  0  0  0  0  0  0  0  0  0
  -28.4750   -5.6680  -30.9850 N   0  0  0  0  0  0  0  0  0  0  0  0
  -28.6350   -4.6890  -29.9660 C   0  0  0  0  0  0  0  0  0  0  0  0
  -28.2350   -3.3800  -30.1900 C   0  0  0  0  0  0  0  0  0  0  0  0
  -28.5900   -2.6920  -29.1290 O   0  0  0  0  0  0  0  0  0  0  0  0
  -29.2430   -4.7380  -28.7220 C   0  0  0  0  0  0  0  0  0  0  0  0
  -29.1880   -3.4460  -28.2380 C   0  0  0  0  0  0  0  0  0  0  0  0
  -28.5530   -8.2100  -28.6470 C   0  0  0  0  0  0  0  0  0  0  0  0
  -27.2090   -7.8690  -28.5800 C   0  0  0  0  0  0  0  0  0  0  0  0
  -26.4480   -8.1930  -27.4500 C   0  0  0  0  0  0  0  0  0  0  0  0
  -27.0870   -8.8570  -26.4120 C   0  0  0  0  0  0  0  0  0  0  0  0
  -28.4250   -9.1890  -26.4930 C   0  0  0  0  0  0  0  0  0  0  0  0
  -29.1890   -8.8730  -27.6130 C   0  0  0  0  0  0  0  0  0  0  0  0
  -29.0740   -9.9110  -25.3390 C   0  0  0  0  0  0  0  0  0  0  0  0
  -29.1380   -9.3030  -23.7910 C   0  0  0  0  0  0  0  0  0  0  0  0
  1  2  2  0
  1  6  1  0
  1  3  1  0
  2  4  1  0
  3 12  1  0
  4  5  2  0
  5  6  1  0
  6  7  1  0
 12 13  2  0
 12 17  1  0
 13 14  1  0
 14 15  2  0
 15 16  1  0
 16 17  2  0
 16 18  1  0
 18 19  1  0
  7  8  2  0
  7 10  1  0
  8  9  1  0
  9 11  1  0
 10 11  2  0
M  END
>  <name>  (131) 
Car Nac Nd0 Car Nac Nac Car Car O_a Car Car Car Car Car Car Car Car Cs3 Cs3

>  <indices>  (131) 
[0, 1, 2]

>  <tasks>  (131) 
probe_placing close_aromatic_ring close_aromatic_ring close_aromatic_ring ring_built build_to_Nac close_aromatic_ring close_aromatic_ring close_aromatic_ring close_aromatic_ring build_to_Nd0 close_aromatic_ring close_aromatic_ring close_aromatic_ring close_aromatic_ring close_aromatic_ring no_task

>  <prot_clashes>  (131) 
11

>  <NBS phar>  (131) 
0.13999999999999999

>  <NBS_non-phar>  (131) 
0.49547441382157176

>  <NBS>  (131) 
0.6354744138215718

>  <source_stage>  (131) 
scored

>  <source_iter>  (131) 
16

>  <source_parent_mol>  (131) 
5

>  <source_scenario>  (131) 
1 2 3 1 4 0 5 1 0 8 2 0 1 1 1 5

>  <source_rank_in_scored_call>  (131) 
27

>  <source_current_task>  (131) 
no_task

>  <scenario>  (131) 
1 2 3 1 4 0 5 1 0 8 2 0 1 1 1

>  <protected_ring_attachments>  (131) 
1,0,5,6|0,5,6;3,1,0,2|1,0,2;3,4,5,6|4,5,6;4,5,0,2|5,0,2;13,12,11,2|12,11,2;15,16,11,2|16,11,2

>  <current_task>  (131) 
no_task

>  <rotatable_bond_torsions>  (131) 
1,0,2,11;0,2,11,12;0,5,6,7

$$$$

     RDKit          3D

 19 21  0  0  0  0  0  0  0  0999 V2000
  -28.7650   -6.9830  -30.8820 C   0  0  0  0  0  0  0  0  0  0  0  0
  -28.4360   -7.5630  -32.0730 N   0  0  0  0  0  0  0  0  0  0  0  0
  -29.3060   -7.8150  -29.7510 N   0  0  0  0  0  0  0  0  0  0  0  0
  -27.9490   -6.6120  -32.8880 C   0  0  0  0  0  0  0  0  0  0  0  0
  -27.9850   -5.4450  -32.1870 N   0  0  0  0  0  0  0  0  0  0  0  0
  -28.4770   -5.6720  -30.9850 N   0  0  0  0  0  0  0  0  0  0  0  0
  -28.6360   -4.6920  -29.9670 C   0  0  0  0  0  0  0  0  0  0  0  0
  -28.2360   -3.3830  -30.1910 C   0  0  0  0  0  0  0  0  0  0  0  0
  -28.5910   -2.6940  -29.1310 O   0  0  0  0  0  0  0  0  0  0  0  0
  -29.2430   -4.7400  -28.7220 C   0  0  0  0  0  0  0  0  0  0  0  0
  -29.1870   -3.4480  -28.2390 C   0  0  0  0  0  0  0  0  0  0  0  0
  -28.5530   -8.2120  -28.6450 C   0  0  0  0  0  0  0  0  0  0  0  0
  -27.2090   -7.8710  -28.5800 C   0  0  0  0  0  0  0  0  0  0  0  0
  -26.4470   -8.1950  -27.4500 C   0  0  0  0  0  0  0  0  0  0  0  0
  -27.0860   -8.8580  -26.4110 C   0  0  0  0  0  0  0  0  0  0  0  0
  -28.4230   -9.1900  -26.4900 C   0  0  0  0  0  0  0  0  0  0  0  0
  -29.1880   -8.8750  -27.6100 C   0  0  0  0  0  0  0  0  0  0  0  0
  -29.0710   -9.9120  -25.3360 C   0  0  0  0  0  0  0  0  0  0  0  0
  -29.4580   -9.0060  -24.1500 C   0  0  0  0  0  0  0  0  0  0  0  0
  1  2  2  0
  1  6  1  0
  1  3  1  0
  2  4  1  0
  3 12  1  0
  4  5  2  0
  5  6  1  0
  6  7  1  0
 12 13  2  0
 12 17  1  0
 13 14  1  0
 14 15  2  0
 15 16  1  0
 16 17  2  0
 16 18  1  0
 18 19  1  0
  7  8  2  0
  7 10  1  0
  8  9  1  0
  9 11  1  0
 10 11  2  0
M  END
>  <name>  (132) 
Car Nac Nd0 Car Nac Nac Car Car O_a Car Car Car Car Car Car Car Car Cs3 Cs3

>  <indices>  (132) 
[0, 1, 2]

>  <tasks>  (132) 
probe_placing close_aromatic_ring close_aromatic_ring close_aromatic_ring ring_built build_to_Nac close_aromatic_ring close_aromatic_ring close_aromatic_ring close_aromatic_ring build_to_Nd0 close_aromatic_ring close_aromatic_ring close_aromatic_ring close_aromatic_ring close_aromatic_ring no_task

>  <prot_clashes>  (132) 
11

>  <NBS phar>  (132) 
0.13999999999999999

>  <NBS_non-phar>  (132) 
0.4946617327238384

>  <NBS>  (132) 
0.6346617327238384

>  <source_stage>  (132) 
scored

>  <source_iter>  (132) 
16

>  <source_parent_mol>  (132) 
5

>  <source_scenario>  (132) 
1 2 3 1 4 0 5 1 0 8 2 0 1 1 1 5

>  <source_rank_in_scored_call>  (132) 
28

>  <source_current_task>  (132) 
no_task

>  <scenario>  (132) 
1 2 3 1 4 0 5 1 0 8 2 0 1 1 1

>  <protected_ring_attachments>  (132) 
1,0,5,6|0,5,6;3,1,0,2|1,0,2;3,4,5,6|4,5,6;4,5,0,2|5,0,2;13,12,11,2|12,11,2;15,16,11,2|16,11,2

>  <current_task>  (132) 
no_task

>  <rotatable_bond_torsions>  (132) 
1,0,2,11;0,2,11,12;0,5,6,7

$$$$

     RDKit          3D

 19 21  0  0  0  0  0  0  0  0999 V2000
  -28.7640   -6.9830  -30.8830 C   0  0  0  0  0  0  0  0  0  0  0  0
  -28.4340   -7.5640  -32.0740 N   0  0  0  0  0  0  0  0  0  0  0  0
  -29.3080   -7.8140  -29.7540 N   0  0  0  0  0  0  0  0  0  0  0  0
  -27.9440   -6.6140  -32.8880 C   0  0  0  0  0  0  0  0  0  0  0  0
  -27.9810   -5.4470  -32.1880 N   0  0  0  0  0  0  0  0  0  0  0  0
  -28.4740   -5.6720  -30.9870 N   0  0  0  0  0  0  0  0  0  0  0  0
  -28.6350   -4.6920  -29.9690 C   0  0  0  0  0  0  0  0  0  0  0  0
  -28.2330   -3.3840  -30.1940 C   0  0  0  0  0  0  0  0  0  0  0  0
  -28.5890   -2.6940  -29.1340 O   0  0  0  0  0  0  0  0  0  0  0  0
  -29.2440   -4.7390  -28.7260 C   0  0  0  0  0  0  0  0  0  0  0  0
  -29.1880   -3.4470  -28.2430 C   0  0  0  0  0  0  0  0  0  0  0  0
  -28.5580   -8.2120  -28.6460 C   0  0  0  0  0  0  0  0  0  0  0  0
  -27.2140   -7.8720  -28.5780 C   0  0  0  0  0  0  0  0  0  0  0  0
  -26.4540   -8.1960  -27.4470 C   0  0  0  0  0  0  0  0  0  0  0  0
  -27.0950   -8.8580  -26.4080 C   0  0  0  0  0  0  0  0  0  0  0  0
  -28.4330   -9.1890  -26.4900 C   0  0  0  0  0  0  0  0  0  0  0  0
  -29.1950   -8.8730  -27.6120 C   0  0  0  0  0  0  0  0  0  0  0  0
  -29.0840   -9.9090  -25.3370 C   0  0  0  0  0  0  0  0  0  0  0  0
  -29.2350  -11.4310  -25.5470 C   0  0  0  0  0  0  0  0  0  0  0  0
  1  2  2  0
  1  6  1  0
  1  3  1  0
  2  4  1  0
  3 12  1  0
  4  5  2  0
  5  6  1  0
  6  7  1  0
 12 13  2  0
 12 17  1  0
 13 14  1  0
 14 15  2  0
 15 16  1  0
 16 17  2  0
 16 18  1  0
 18 19  1  0
  7  8  2  0
  7 10  1  0
  8  9  1  0
  9 11  1  0
 10 11  2  0
M  END
>  <name>  (133) 
Car Nac Nd0 Car Nac Nac Car Car O_a Car Car Car Car Car Car Car Car Cs3 Cs3

>  <indices>  (133) 
[0, 1, 2]

>  <tasks>  (133) 
probe_placing close_aromatic_ring close_aromatic_ring close_aromatic_ring ring_built build_to_Nac close_aromatic_ring close_aromatic_ring close_aromatic_ring close_aromatic_ring build_to_Nd0 close_aromatic_ring close_aromatic_ring close_aromatic_ring close_aromatic_ring close_aromatic_ring no_task

>  <prot_clashes>  (133) 
11

>  <NBS phar>  (133) 
0.13999999999999999

>  <NBS_non-phar>  (133) 
0.49398848884984065

>  <NBS>  (133) 
0.6339884888498406

>  <source_stage>  (133) 
scored

>  <source_iter>  (133) 
16

>  <source_parent_mol>  (133) 
5

>  <source_scenario>  (133) 
1 2 3 1 4 0 5 1 0 8 2 0 1 1 1 5

>  <source_rank_in_scored_call>  (133) 
29

>  <source_current_task>  (133) 
no_task

>  <scenario>  (133) 
1 2 3 1 4 0 5 1 0 8 2 0 1 1 1

>  <protected_ring_attachments>  (133) 
1,0,5,6|0,5,6;3,1,0,2|1,0,2;3,4,5,6|4,5,6;4,5,0,2|5,0,2;13,12,11,2|12,11,2;15,16,11,2|16,11,2

>  <current_task>  (133) 
no_task

>  <rotatable_bond_torsions>  (133) 
1,0,2,11;0,2,11,12;0,5,6,7

$$$$

     RDKit          3D

 19 21  0  0  0  0  0  0  0  0999 V2000
  -28.7640   -6.9830  -30.8830 C   0  0  0  0  0  0  0  0  0  0  0  0
  -28.4340   -7.5640  -32.0740 N   0  0  0  0  0  0  0  0  0  0  0  0
  -29.3080   -7.8140  -29.7540 N   0  0  0  0  0  0  0  0  0  0  0  0
  -27.9440   -6.6140  -32.8880 C   0  0  0  0  0  0  0  0  0  0  0  0
  -27.9810   -5.4470  -32.1880 N   0  0  0  0  0  0  0  0  0  0  0  0
  -28.4740   -5.6720  -30.9870 N   0  0  0  0  0  0  0  0  0  0  0  0
  -28.6350   -4.6920  -29.9690 C   0  0  0  0  0  0  0  0  0  0  0  0
  -28.2330   -3.3830  -30.1940 C   0  0  0  0  0  0  0  0  0  0  0  0
  -28.5890   -2.6940  -29.1340 O   0  0  0  0  0  0  0  0  0  0  0  0
  -29.2440   -4.7390  -28.7250 C   0  0  0  0  0  0  0  0  0  0  0  0
  -29.1880   -3.4470  -28.2430 C   0  0  0  0  0  0  0  0  0  0  0  0
  -28.5580   -8.2120  -28.6460 C   0  0  0  0  0  0  0  0  0  0  0  0
  -27.2140   -7.8720  -28.5780 C   0  0  0  0  0  0  0  0  0  0  0  0
  -26.4540   -8.1950  -27.4470 C   0  0  0  0  0  0  0  0  0  0  0  0
  -27.0950   -8.8580  -26.4090 C   0  0  0  0  0  0  0  0  0  0  0  0
  -28.4330   -9.1890  -26.4910 C   0  0  0  0  0  0  0  0  0  0  0  0
  -29.1950   -8.8730  -27.6120 C   0  0  0  0  0  0  0  0  0  0  0  0
  -29.0840   -9.9090  -25.3370 C   0  0  0  0  0  0  0  0  0  0  0  0
  -29.2500  -11.4270  -25.5440 C   0  0  0  0  0  0  0  0  0  0  0  0
  1  2  2  0
  1  6  1  0
  1  3  1  0
  2  4  1  0
  3 12  1  0
  4  5  2  0
  5  6  1  0
  6  7  1  0
 12 13  2  0
 12 17  1  0
 13 14  1  0
 14 15  2  0
 15 16  1  0
 16 17  2  0
 16 18  1  0
 18 19  1  0
  7  8  2  0
  7 10  1  0
  8  9  1  0
  9 11  1  0
 10 11  2  0
M  END
>  <name>  (134) 
Car Nac Nd0 Car Nac Nac Car Car O_a Car Car Car Car Car Car Car Car Cs3 Cs3

>  <indices>  (134) 
[0, 1, 2]

>  <tasks>  (134) 
probe_placing close_aromatic_ring close_aromatic_ring close_aromatic_ring ring_built build_to_Nac close_aromatic_ring close_aromatic_ring close_aromatic_ring close_aromatic_ring build_to_Nd0 close_aromatic_ring close_aromatic_ring close_aromatic_ring close_aromatic_ring close_aromatic_ring no_task

>  <prot_clashes>  (134) 
11

>  <NBS phar>  (134) 
0.13999999999999999

>  <NBS_non-phar>  (134) 
0.4938898588481702

>  <NBS>  (134) 
0.6338898588481702

>  <source_stage>  (134) 
scored

>  <source_iter>  (134) 
16

>  <source_parent_mol>  (134) 
5

>  <source_scenario>  (134) 
1 2 3 1 4 0 5 1 0 8 2 0 1 1 1 5

>  <source_rank_in_scored_call>  (134) 
30

>  <source_current_task>  (134) 
no_task

>  <scenario>  (134) 
1 2 3 1 4 0 5 1 0 8 2 0 1 1 1

>  <protected_ring_attachments>  (134) 
1,0,5,6|0,5,6;3,1,0,2|1,0,2;3,4,5,6|4,5,6;4,5,0,2|5,0,2;13,12,11,2|12,11,2;15,16,11,2|16,11,2

>  <current_task>  (134) 
no_task

>  <rotatable_bond_torsions>  (134) 
1,0,2,11;0,2,11,12;0,5,6,7

$$$$

     RDKit          3D

 19 21  0  0  0  0  0  0  0  0999 V2000
  -28.7650   -6.9830  -30.8820 C   0  0  0  0  0  0  0  0  0  0  0  0
  -28.4360   -7.5630  -32.0730 N   0  0  0  0  0  0  0  0  0  0  0  0
  -29.3070   -7.8150  -29.7520 N   0  0  0  0  0  0  0  0  0  0  0  0
  -27.9490   -6.6120  -32.8880 C   0  0  0  0  0  0  0  0  0  0  0  0
  -27.9850   -5.4450  -32.1870 N   0  0  0  0  0  0  0  0  0  0  0  0
  -28.4770   -5.6710  -30.9850 N   0  0  0  0  0  0  0  0  0  0  0  0
  -28.6370   -4.6920  -29.9660 C   0  0  0  0  0  0  0  0  0  0  0  0
  -28.2370   -3.3830  -30.1910 C   0  0  0  0  0  0  0  0  0  0  0  0
  -28.5920   -2.6940  -29.1300 O   0  0  0  0  0  0  0  0  0  0  0  0
  -29.2440   -4.7410  -28.7220 C   0  0  0  0  0  0  0  0  0  0  0  0
  -29.1880   -3.4480  -28.2390 C   0  0  0  0  0  0  0  0  0  0  0  0
  -28.5540   -8.2120  -28.6450 C   0  0  0  0  0  0  0  0  0  0  0  0
  -27.2100   -7.8710  -28.5790 C   0  0  0  0  0  0  0  0  0  0  0  0
  -26.4480   -8.1950  -27.4500 C   0  0  0  0  0  0  0  0  0  0  0  0
  -27.0870   -8.8580  -26.4110 C   0  0  0  0  0  0  0  0  0  0  0  0
  -28.4240   -9.1910  -26.4910 C   0  0  0  0  0  0  0  0  0  0  0  0
  -29.1890   -8.8750  -27.6100 C   0  0  0  0  0  0  0  0  0  0  0  0
  -29.0730   -9.9120  -25.3360 C   0  0  0  0  0  0  0  0  0  0  0  0
  -29.4650   -8.9940  -24.1610 C   0  0  0  0  0  0  0  0  0  0  0  0
  1  2  2  0
  1  6  1  0
  1  3  1  0
  2  4  1  0
  3 12  1  0
  4  5  2  0
  5  6  1  0
  6  7  1  0
 12 13  2  0
 12 17  1  0
 13 14  1  0
 14 15  2  0
 15 16  1  0
 16 17  2  0
 16 18  1  0
 18 19  1  0
  7  8  2  0
  7 10  1  0
  8  9  1  0
  9 11  1  0
 10 11  2  0
M  END
>  <name>  (135) 
Car Nac Nd0 Car Nac Nac Car Car O_a Car Car Car Car Car Car Car Car Cs3 Cs3

>  <indices>  (135) 
[0, 1, 2]

>  <tasks>  (135) 
probe_placing close_aromatic_ring close_aromatic_ring close_aromatic_ring ring_built build_to_Nac close_aromatic_ring close_aromatic_ring close_aromatic_ring close_aromatic_ring build_to_Nd0 close_aromatic_ring close_aromatic_ring close_aromatic_ring close_aromatic_ring close_aromatic_ring no_task

>  <prot_clashes>  (135) 
11

>  <NBS phar>  (135) 
0.13999999999999999

>  <NBS_non-phar>  (135) 
0.49380854556435033

>  <NBS>  (135) 
0.6338085455643503

>  <source_stage>  (135) 
scored

>  <source_iter>  (135) 
16

>  <source_parent_mol>  (135) 
5

>  <source_scenario>  (135) 
1 2 3 1 4 0 5 1 0 8 2 0 1 1 1 5

>  <source_rank_in_scored_call>  (135) 
31

>  <source_current_task>  (135) 
no_task

>  <scenario>  (135) 
1 2 3 1 4 0 5 1 0 8 2 0 1 1 1

>  <protected_ring_attachments>  (135) 
1,0,5,6|0,5,6;3,1,0,2|1,0,2;3,4,5,6|4,5,6;4,5,0,2|5,0,2;13,12,11,2|12,11,2;15,16,11,2|16,11,2

>  <current_task>  (135) 
no_task

>  <rotatable_bond_torsions>  (135) 
1,0,2,11;0,2,11,12;0,5,6,7

$$$$

     RDKit          3D

 19 21  0  0  0  0  0  0  0  0999 V2000
  -28.7640   -6.9820  -30.8830 C   0  0  0  0  0  0  0  0  0  0  0  0
  -28.4340   -7.5620  -32.0740 N   0  0  0  0  0  0  0  0  0  0  0  0
  -29.3060   -7.8140  -29.7530 N   0  0  0  0  0  0  0  0  0  0  0  0
  -27.9470   -6.6100  -32.8890 C   0  0  0  0  0  0  0  0  0  0  0  0
  -27.9840   -5.4440  -32.1870 N   0  0  0  0  0  0  0  0  0  0  0  0
  -28.4760   -5.6700  -30.9860 N   0  0  0  0  0  0  0  0  0  0  0  0
  -28.6360   -4.6920  -29.9670 C   0  0  0  0  0  0  0  0  0  0  0  0
  -28.2360   -3.3820  -30.1910 C   0  0  0  0  0  0  0  0  0  0  0  0
  -28.5920   -2.6940  -29.1310 O   0  0  0  0  0  0  0  0  0  0  0  0
  -29.2440   -4.7400  -28.7230 C   0  0  0  0  0  0  0  0  0  0  0  0
  -29.1890   -3.4480  -28.2390 C   0  0  0  0  0  0  0  0  0  0  0  0
  -28.5530   -8.2120  -28.6470 C   0  0  0  0  0  0  0  0  0  0  0  0
  -27.2090   -7.8700  -28.5800 C   0  0  0  0  0  0  0  0  0  0  0  0
  -26.4480   -8.1940  -27.4500 C   0  0  0  0  0  0  0  0  0  0  0  0
  -27.0860   -8.8580  -26.4120 C   0  0  0  0  0  0  0  0  0  0  0  0
  -28.4230   -9.1900  -26.4920 C   0  0  0  0  0  0  0  0  0  0  0  0
  -29.1880   -8.8750  -27.6120 C   0  0  0  0  0  0  0  0  0  0  0  0
  -29.0720   -9.9130  -25.3380 C   0  0  0  0  0  0  0  0  0  0  0  0
  -29.2740  -11.4030  -25.4360 C   0  0  0  0  0  0  0  0  0  0  0  0
  1  2  2  0
  1  6  1  0
  1  3  1  0
  2  4  1  0
  3 12  1  0
  4  5  2  0
  5  6  1  0
  6  7  1  0
 12 13  2  0
 12 17  1  0
 13 14  1  0
 14 15  2  0
 15 16  1  0
 16 17  2  0
 16 18  1  0
 18 19  1  0
  7  8  2  0
  7 10  1  0
  8  9  1  0
  9 11  1  0
 10 11  2  0
M  END
>  <name>  (136) 
Car Nac Nd0 Car Nac Nac Car Car O_a Car Car Car Car Car Car Car Car Cs3 Cs3

>  <indices>  (136) 
[0, 1, 2]

>  <tasks>  (136) 
probe_placing close_aromatic_ring close_aromatic_ring close_aromatic_ring ring_built build_to_Nac close_aromatic_ring close_aromatic_ring close_aromatic_ring close_aromatic_ring build_to_Nd0 close_aromatic_ring close_aromatic_ring close_aromatic_ring close_aromatic_ring close_aromatic_ring no_task

>  <prot_clashes>  (136) 
11

>  <NBS phar>  (136) 
0.13999999999999999

>  <NBS_non-phar>  (136) 
0.49336247695119756

>  <NBS>  (136) 
0.6333624769511975

>  <source_stage>  (136) 
scored

>  <source_iter>  (136) 
16

>  <source_parent_mol>  (136) 
5

>  <source_scenario>  (136) 
1 2 3 1 4 0 5 1 0 8 2 0 1 1 1 5

>  <source_rank_in_scored_call>  (136) 
33

>  <source_current_task>  (136) 
no_task

>  <scenario>  (136) 
1 2 3 1 4 0 5 1 0 8 2 0 1 1 1

>  <protected_ring_attachments>  (136) 
1,0,5,6|0,5,6;3,1,0,2|1,0,2;3,4,5,6|4,5,6;4,5,0,2|5,0,2;13,12,11,2|12,11,2;15,16,11,2|16,11,2

>  <current_task>  (136) 
no_task

>  <rotatable_bond_torsions>  (136) 
1,0,2,11;0,2,11,12;0,5,6,7

$$$$

     RDKit          3D

 19 21  0  0  0  0  0  0  0  0999 V2000
  -28.7640   -6.9800  -30.8850 C   0  0  0  0  0  0  0  0  0  0  0  0
  -28.4340   -7.5600  -32.0760 N   0  0  0  0  0  0  0  0  0  0  0  0
  -29.3080   -7.8120  -29.7560 N   0  0  0  0  0  0  0  0  0  0  0  0
  -27.9450   -6.6090  -32.8900 C   0  0  0  0  0  0  0  0  0  0  0  0
  -27.9810   -5.4420  -32.1890 N   0  0  0  0  0  0  0  0  0  0  0  0
  -28.4740   -5.6690  -30.9880 N   0  0  0  0  0  0  0  0  0  0  0  0
  -28.6350   -4.6900  -29.9690 C   0  0  0  0  0  0  0  0  0  0  0  0
  -28.2330   -3.3810  -30.1930 C   0  0  0  0  0  0  0  0  0  0  0  0
  -28.5890   -2.6920  -29.1320 O   0  0  0  0  0  0  0  0  0  0  0  0
  -29.2440   -4.7380  -28.7250 C   0  0  0  0  0  0  0  0  0  0  0  0
  -29.1880   -3.4460  -28.2420 C   0  0  0  0  0  0  0  0  0  0  0  0
  -28.5580   -8.2100  -28.6490 C   0  0  0  0  0  0  0  0  0  0  0  0
  -27.2130   -7.8710  -28.5810 C   0  0  0  0  0  0  0  0  0  0  0  0
  -26.4540   -8.1950  -27.4500 C   0  0  0  0  0  0  0  0  0  0  0  0
  -27.0950   -8.8580  -26.4120 C   0  0  0  0  0  0  0  0  0  0  0  0
  -28.4320   -9.1890  -26.4940 C   0  0  0  0  0  0  0  0  0  0  0  0
  -29.1950   -8.8730  -27.6150 C   0  0  0  0  0  0  0  0  0  0  0  0
  -29.0830   -9.9110  -25.3410 C   0  0  0  0  0  0  0  0  0  0  0  0
  -29.8130  -11.4030  -25.4780 C   0  0  0  0  0  0  0  0  0  0  0  0
  1  2  2  0
  1  6  1  0
  1  3  1  0
  2  4  1  0
  3 12  1  0
  4  5  2  0
  5  6  1  0
  6  7  1  0
 12 13  2  0
 12 17  1  0
 13 14  1  0
 14 15  2  0
 15 16  1  0
 16 17  2  0
 16 18  1  0
 18 19  1  0
  7  8  2  0
  7 10  1  0
  8  9  1  0
  9 11  1  0
 10 11  2  0
M  END
>  <name>  (137) 
Car Nac Nd0 Car Nac Nac Car Car O_a Car Car Car Car Car Car Car Car Cs3 Cs3

>  <indices>  (137) 
[0, 1, 2]

>  <tasks>  (137) 
probe_placing close_aromatic_ring close_aromatic_ring close_aromatic_ring ring_built build_to_Nac close_aromatic_ring close_aromatic_ring close_aromatic_ring close_aromatic_ring build_to_Nd0 close_aromatic_ring close_aromatic_ring close_aromatic_ring close_aromatic_ring close_aromatic_ring no_task

>  <prot_clashes>  (137) 
11

>  <NBS phar>  (137) 
0.13999999999999999

>  <NBS_non-phar>  (137) 
0.491488306145919

>  <NBS>  (137) 
0.631488306145919

>  <source_stage>  (137) 
scored

>  <source_iter>  (137) 
16

>  <source_parent_mol>  (137) 
5

>  <source_scenario>  (137) 
1 2 3 1 4 0 5 1 0 8 2 0 1 1 1 5

>  <source_rank_in_scored_call>  (137) 
40

>  <source_current_task>  (137) 
no_task

>  <scenario>  (137) 
1 2 3 1 4 0 5 1 0 8 2 0 1 1 1

>  <protected_ring_attachments>  (137) 
1,0,5,6|0,5,6;3,1,0,2|1,0,2;3,4,5,6|4,5,6;4,5,0,2|5,0,2;13,12,11,2|12,11,2;15,16,11,2|16,11,2

>  <current_task>  (137) 
no_task

>  <rotatable_bond_torsions>  (137) 
1,0,2,11;0,2,11,12;0,5,6,7

$$$$

     RDKit          3D

 19 21  0  0  0  0  0  0  0  0999 V2000
  -28.7650   -6.9700  -30.9120 C   0  0  0  0  0  0  0  0  0  0  0  0
  -28.4170   -7.5290  -32.1080 N   0  0  0  0  0  0  0  0  0  0  0  0
  -29.3520   -7.8170  -29.8160 N   0  0  0  0  0  0  0  0  0  0  0  0
  -27.8910   -6.5690  -32.8870 C   0  0  0  0  0  0  0  0  0  0  0  0
  -27.9220   -5.4190  -32.1600 N   0  0  0  0  0  0  0  0  0  0  0  0
  -28.4490   -5.6630  -30.9770 N   0  0  0  0  0  0  0  0  0  0  0  0
  -28.6170   -4.7050  -29.9400 C   0  0  0  0  0  0  0  0  0  0  0  0
  -28.1850   -3.3990  -30.1230 C   0  0  0  0  0  0  0  0  0  0  0  0
  -28.5540   -2.7280  -29.0550 O   0  0  0  0  0  0  0  0  0  0  0  0
  -29.2570   -4.7700  -28.7120 C   0  0  0  0  0  0  0  0  0  0  0  0
  -29.1890   -3.4900  -28.1980 C   0  0  0  0  0  0  0  0  0  0  0  0
  -28.6370   -8.2560  -28.7010 C   0  0  0  0  0  0  0  0  0  0  0  0
  -27.2880   -7.9430  -28.5920 C   0  0  0  0  0  0  0  0  0  0  0  0
  -26.5630   -8.3080  -27.4520 C   0  0  0  0  0  0  0  0  0  0  0  0
  -27.2410   -8.9830  -26.4450 C   0  0  0  0  0  0  0  0  0  0  0  0
  -28.5820   -9.2860  -26.5670 C   0  0  0  0  0  0  0  0  0  0  0  0
  -29.3100   -8.9290  -27.6980 C   0  0  0  0  0  0  0  0  0  0  0  0
  -29.2740  -10.0210  -25.4470 C   0  0  0  0  0  0  0  0  0  0  0  0
  -28.6480  -11.1550  -24.8050 C   0  0  0  0  0  0  0  0  0  0  0  0
  1  2  2  0
  1  6  1  0
  1  3  1  0
  2  4  1  0
  3 12  1  0
  4  5  2  0
  5  6  1  0
  6  7  1  0
 12 13  2  0
 12 17  1  0
 13 14  1  0
 14 15  2  0
 15 16  1  0
 16 17  2  0
 16 18  1  0
 18 19  1  0
  7  8  2  0
  7 10  1  0
  8  9  1  0
  9 11  1  0
 10 11  2  0
M  END
>  <name>  (138) 
Car Nac Nd0 Car Nac Nac Car Car O_a Car Car Car Car Car Car Car Car Cs3 Cs3

>  <indices>  (138) 
[0, 1, 2]

>  <tasks>  (138) 
probe_placing close_aromatic_ring close_aromatic_ring close_aromatic_ring ring_built build_to_Nac close_aromatic_ring close_aromatic_ring close_aromatic_ring close_aromatic_ring build_to_Nd0 close_aromatic_ring close_aromatic_ring close_aromatic_ring close_aromatic_ring close_aromatic_ring no_task

>  <prot_clashes>  (138) 
11

>  <NBS phar>  (138) 
0.13999999999999999

>  <NBS_non-phar>  (138) 
0.4705109345285516

>  <NBS>  (138) 
0.6105109345285515

>  <source_stage>  (138) 
scored

>  <source_iter>  (138) 
16

>  <source_parent_mol>  (138) 
5

>  <source_scenario>  (138) 
1 2 3 1 4 0 5 1 0 8 2 0 1 1 1 5

>  <source_rank_in_scored_call>  (138) 
60

>  <source_current_task>  (138) 
no_task

>  <scenario>  (138) 
1 2 3 1 4 0 5 1 0 8 2 0 1 1 1

>  <protected_ring_attachments>  (138) 
1,0,5,6|0,5,6;3,1,0,2|1,0,2;3,4,5,6|4,5,6;4,5,0,2|5,0,2;13,12,11,2|12,11,2;15,16,11,2|16,11,2

>  <current_task>  (138) 
no_task

>  <rotatable_bond_torsions>  (138) 
1,0,2,11;0,2,11,12;0,5,6,7

$$$$

     RDKit          3D

 19 21  0  0  0  0  0  0  0  0999 V2000
  -28.7660   -6.9670  -30.9130 C   0  0  0  0  0  0  0  0  0  0  0  0
  -28.4170   -7.5250  -32.1100 N   0  0  0  0  0  0  0  0  0  0  0  0
  -29.3530   -7.8150  -29.8180 N   0  0  0  0  0  0  0  0  0  0  0  0
  -27.8910   -6.5640  -32.8880 C   0  0  0  0  0  0  0  0  0  0  0  0
  -27.9230   -5.4140  -32.1600 N   0  0  0  0  0  0  0  0  0  0  0  0
  -28.4490   -5.6600  -30.9770 N   0  0  0  0  0  0  0  0  0  0  0  0
  -28.6170   -4.7020  -29.9390 C   0  0  0  0  0  0  0  0  0  0  0  0
  -28.1850   -3.3960  -30.1210 C   0  0  0  0  0  0  0  0  0  0  0  0
  -28.5540   -2.7270  -29.0530 O   0  0  0  0  0  0  0  0  0  0  0  0
  -29.2570   -4.7680  -28.7120 C   0  0  0  0  0  0  0  0  0  0  0  0
  -29.1890   -3.4890  -28.1960 C   0  0  0  0  0  0  0  0  0  0  0  0
  -28.6370   -8.2540  -28.7030 C   0  0  0  0  0  0  0  0  0  0  0  0
  -27.2890   -7.9420  -28.5950 C   0  0  0  0  0  0  0  0  0  0  0  0
  -26.5630   -8.3080  -27.4540 C   0  0  0  0  0  0  0  0  0  0  0  0
  -27.2410   -8.9830  -26.4480 C   0  0  0  0  0  0  0  0  0  0  0  0
  -28.5820   -9.2860  -26.5710 C   0  0  0  0  0  0  0  0  0  0  0  0
  -29.3110   -8.9280  -27.7010 C   0  0  0  0  0  0  0  0  0  0  0  0
  -29.2750  -10.0220  -25.4510 C   0  0  0  0  0  0  0  0  0  0  0  0
  -28.6400  -11.1550  -24.7580 C   0  0  0  0  0  0  0  0  0  0  0  0
  1  2  2  0
  1  6  1  0
  1  3  1  0
  2  4  1  0
  3 12  1  0
  4  5  2  0
  5  6  1  0
  6  7  1  0
 12 13  2  0
 12 17  1  0
 13 14  1  0
 14 15  2  0
 15 16  1  0
 16 17  2  0
 16 18  1  0
 18 19  1  0
  7  8  2  0
  7 10  1  0
  8  9  1  0
  9 11  1  0
 10 11  2  0
M  END
>  <name>  (139) 
Car Nac Nd0 Car Nac Nac Car Car O_a Car Car Car Car Car Car Car Car Cs3 Cs3

>  <indices>  (139) 
[0, 1, 2]

>  <tasks>  (139) 
probe_placing close_aromatic_ring close_aromatic_ring close_aromatic_ring ring_built build_to_Nac close_aromatic_ring close_aromatic_ring close_aromatic_ring close_aromatic_ring build_to_Nd0 close_aromatic_ring close_aromatic_ring close_aromatic_ring close_aromatic_ring close_aromatic_ring no_task

>  <prot_clashes>  (139) 
11

>  <NBS phar>  (139) 
0.13999999999999999

>  <NBS_non-phar>  (139) 
0.4684295654296875

>  <NBS>  (139) 
0.6084295654296875

>  <source_stage>  (139) 
scored

>  <source_iter>  (139) 
16

>  <source_parent_mol>  (139) 
5

>  <source_scenario>  (139) 
1 2 3 1 4 0 5 1 0 8 2 0 1 1 1 5

>  <source_rank_in_scored_call>  (139) 
63

>  <source_current_task>  (139) 
no_task

>  <scenario>  (139) 
1 2 3 1 4 0 5 1 0 8 2 0 1 1 1

>  <protected_ring_attachments>  (139) 
1,0,5,6|0,5,6;3,1,0,2|1,0,2;3,4,5,6|4,5,6;4,5,0,2|5,0,2;13,12,11,2|12,11,2;15,16,11,2|16,11,2

>  <current_task>  (139) 
no_task

>  <rotatable_bond_torsions>  (139) 
1,0,2,11;0,2,11,12;0,5,6,7

$$$$

     RDKit          3D

 14 15  0  0  0  0  0  0  0  0999 V2000
  -27.6730   -6.5790  -30.7660 C   0  0  0  0  0  0  0  0  0  0  0  0
  -27.6610   -7.1520  -32.0040 N   0  0  0  0  0  0  0  0  0  0  0  0
  -27.1510   -7.3320  -29.5730 N   0  0  0  0  0  0  0  0  0  0  0  0
  -28.1470   -6.2610  -32.8880 C   0  0  0  0  0  0  0  0  0  0  0  0
  -28.4560   -5.1410  -32.1790 N   0  0  0  0  0  0  0  0  0  0  0  0
  -28.1710   -5.3350  -30.9060 N   0  0  0  0  0  0  0  0  0  0  0  0
  -28.3390   -4.3740  -29.8720 C   0  0  0  0  0  0  0  0  0  0  0  0
  -28.8080   -3.1020  -30.1720 C   0  0  0  0  0  0  0  0  0  0  0  0
  -28.9520   -2.4770  -29.0280 O   0  0  0  0  0  0  0  0  0  0  0  0
  -28.2120   -4.4620  -28.4950 C   0  0  0  0  0  0  0  0  0  0  0  0
  -28.6150   -3.2340  -28.0130 C   0  0  0  0  0  0  0  0  0  0  0  0
  -27.9920   -7.6140  -28.4640 C   0  0  0  0  0  0  0  0  0  0  0  0
  -29.1890   -7.4330  -28.3930 O   0  0  0  0  0  0  0  0  0  0  0  0
  -27.3380   -8.2290  -27.2550 C   0  0  0  0  0  0  0  0  0  0  0  0
  1  2  2  0
  1  6  1  0
  1  3  1  0
  2  4  1  0
  3 12  1  0
  4  5  2  0
  5  6  1  0
  6  7  1  0
 12 13  2  0
 12 14  1  0
  7  8  2  0
  7 10  1  0
  8  9  1  0
  9 11  1  0
 10 11  2  0
M  END
>  <name>  (140) 
Car Nac Nd0 Car Nac Nac Car Car O_a Car Car Cs2 .=O Cs3

>  <indices>  (140) 
[0, 1, 2]

>  <tasks>  (140) 
probe_placing close_aromatic_ring close_aromatic_ring close_aromatic_ring ring_built build_to_Nac close_aromatic_ring close_aromatic_ring close_aromatic_ring close_aromatic_ring build_to_Nd0 build_DB_to_Cs2

>  <prot_clashes>  (140) 
8

>  <NBS phar>  (140) 
0.2800000000000001

>  <NBS_non-phar>  (140) 
0.60230895451137

>  <NBS>  (140) 
0.88230895451137

>  <source_stage>  (140) 
scored

>  <source_iter>  (140) 
11

>  <source_parent_mol>  (140) 
0

>  <source_scenario>  (140) 
1 2 3 1 4 0 5 1 0 9 0

>  <source_rank_in_scored_call>  (140) 
3

>  <source_current_task>  (140) 
build_SB_to_Cs2

>  <scenario>  (140) 
1 2 3 1 4 0 5 1 0 9

>  <protected_ring_attachments>  (140) 
1,0,5,6|0,5,6;3,1,0,2|1,0,2;3,4,5,6|4,5,6;4,5,0,2|5,0,2

>  <current_task>  (140) 
no_task

>  <rotatable_bond_torsions>  (140) 
1,0,2,11;0,2,11,12;0,5,6,7

$$$$

     RDKit          3D

 15 16  0  0  0  0  0  0  0  0999 V2000
  -27.6730   -6.5780  -30.7660 C   0  0  0  0  0  0  0  0  0  0  0  0
  -27.6620   -7.1510  -32.0040 N   0  0  0  0  0  0  0  0  0  0  0  0
  -27.1510   -7.3310  -29.5740 N   0  0  0  0  0  0  0  0  0  0  0  0
  -28.1480   -6.2600  -32.8880 C   0  0  0  0  0  0  0  0  0  0  0  0
  -28.4560   -5.1400  -32.1790 N   0  0  0  0  0  0  0  0  0  0  0  0
  -28.1700   -5.3340  -30.9060 N   0  0  0  0  0  0  0  0  0  0  0  0
  -28.3370   -4.3730  -29.8720 C   0  0  0  0  0  0  0  0  0  0  0  0
  -28.8060   -3.1010  -30.1720 C   0  0  0  0  0  0  0  0  0  0  0  0
  -28.9490   -2.4750  -29.0280 O   0  0  0  0  0  0  0  0  0  0  0  0
  -28.2090   -4.4610  -28.4950 C   0  0  0  0  0  0  0  0  0  0  0  0
  -28.6120   -3.2320  -28.0130 C   0  0  0  0  0  0  0  0  0  0  0  0
  -27.9910   -7.6130  -28.4640 C   0  0  0  0  0  0  0  0  0  0  0  0
  -29.1880   -7.4310  -28.3930 O   0  0  0  0  0  0  0  0  0  0  0  0
  -27.3370   -8.2280  -27.2550 C   0  0  0  0  0  0  0  0  0  0  0  0
  -27.4430   -9.7530  -27.3360 C   0  0  0  0  0  0  0  0  0  0  0  0
  1  2  2  0
  1  6  1  0
  1  3  1  0
  2  4  1  0
  3 12  1  0
  4  5  2  0
  5  6  1  0
  6  7  1  0
 12 13  2  0
 12 14  1  0
  7  8  2  0
  7 10  1  0
  8  9  1  0
  9 11  1  0
 10 11  2  0
 14 15  1  0
M  END
>  <name>  (141) 
Car Nac Nd0 Car Nac Nac Car Car O_a Car Car Cs2 .=O Cs3 Cs3

>  <indices>  (141) 
[0, 1, 2]

>  <tasks>  (141) 
probe_placing close_aromatic_ring close_aromatic_ring close_aromatic_ring ring_built build_to_Nac close_aromatic_ring close_aromatic_ring close_aromatic_ring close_aromatic_ring build_to_Nd0 build_DB_to_Cs2 build_SB_to_Cs2

>  <prot_clashes>  (141) 
8

>  <NBS phar>  (141) 
0.2800000000000001

>  <NBS_non-phar>  (141) 
0.6277740478515625

>  <NBS>  (141) 
0.9077740478515626

>  <source_stage>  (141) 
scored

>  <source_iter>  (141) 
12

>  <source_parent_mol>  (141) 
3

>  <source_scenario>  (141) 
1 2 3 1 4 0 5 1 0 9 0 3

>  <source_rank_in_scored_call>  (141) 
2

>  <source_current_task>  (141) 
no_task

>  <scenario>  (141) 
1 2 3 1 4 0 5 1 0 9 0

>  <protected_ring_attachments>  (141) 
1,0,5,6|0,5,6;3,1,0,2|1,0,2;3,4,5,6|4,5,6;4,5,0,2|5,0,2

>  <current_task>  (141) 
no_task

>  <rotatable_bond_torsions>  (141) 
1,0,2,11;0,2,11,13;0,5,6,7

$$$$

     RDKit          3D

 15 16  0  0  0  0  0  0  0  0999 V2000
  -27.6760   -6.5770  -30.7670 C   0  0  0  0  0  0  0  0  0  0  0  0
  -27.6660   -7.1510  -32.0050 N   0  0  0  0  0  0  0  0  0  0  0  0
  -27.1520   -7.3300  -29.5750 N   0  0  0  0  0  0  0  0  0  0  0  0
  -28.1540   -6.2600  -32.8880 C   0  0  0  0  0  0  0  0  0  0  0  0
  -28.4620   -5.1400  -32.1790 N   0  0  0  0  0  0  0  0  0  0  0  0
  -28.1750   -5.3330  -30.9060 N   0  0  0  0  0  0  0  0  0  0  0  0
  -28.3410   -4.3720  -29.8720 C   0  0  0  0  0  0  0  0  0  0  0  0
  -28.8110   -3.1000  -30.1720 C   0  0  0  0  0  0  0  0  0  0  0  0
  -28.9530   -2.4750  -29.0280 O   0  0  0  0  0  0  0  0  0  0  0  0
  -28.2110   -4.4600  -28.4960 C   0  0  0  0  0  0  0  0  0  0  0  0
  -28.6140   -3.2310  -28.0130 C   0  0  0  0  0  0  0  0  0  0  0  0
  -27.9910   -7.6110  -28.4640 C   0  0  0  0  0  0  0  0  0  0  0  0
  -29.1880   -7.4310  -28.3910 O   0  0  0  0  0  0  0  0  0  0  0  0
  -27.3340   -8.2260  -27.2560 C   0  0  0  0  0  0  0  0  0  0  0  0
  -28.2960   -9.1320  -26.5770 C   0  0  0  0  0  0  0  0  0  0  0  0
  1  2  2  0
  1  6  1  0
  1  3  1  0
  2  4  1  0
  3 12  1  0
  4  5  2  0
  5  6  1  0
  6  7  1  0
 12 13  2  0
 12 14  1  0
  7  8  2  0
  7 10  1  0
  8  9  1  0
  9 11  1  0
 10 11  2  0
 14 15  1  0
M  END
>  <name>  (142) 
Car Nac Nd0 Car Nac Nac Car Car O_a Car Car Cs2 .=O Cs3 Cs3

>  <indices>  (142) 
[0, 1, 2]

>  <tasks>  (142) 
probe_placing close_aromatic_ring close_aromatic_ring close_aromatic_ring ring_built build_to_Nac close_aromatic_ring close_aromatic_ring close_aromatic_ring close_aromatic_ring build_to_Nd0 build_DB_to_Cs2 build_SB_to_Cs2

>  <prot_clashes>  (142) 
10

>  <NBS phar>  (142) 
0.2800000000000001

>  <NBS_non-phar>  (142) 
0.6240943272908529

>  <NBS>  (142) 
0.904094327290853

>  <source_stage>  (142) 
scored

>  <source_iter>  (142) 
12

>  <source_parent_mol>  (142) 
3

>  <source_scenario>  (142) 
1 2 3 1 4 0 5 1 0 9 0 3

>  <source_rank_in_scored_call>  (142) 
6

>  <source_current_task>  (142) 
no_task

>  <scenario>  (142) 
1 2 3 1 4 0 5 1 0 9 0

>  <protected_ring_attachments>  (142) 
1,0,5,6|0,5,6;3,1,0,2|1,0,2;3,4,5,6|4,5,6;4,5,0,2|5,0,2

>  <current_task>  (142) 
no_task

>  <rotatable_bond_torsions>  (142) 
1,0,2,11;0,2,11,13;0,5,6,7

$$$$

     RDKit          3D

 15 16  0  0  0  0  0  0  0  0999 V2000
  -27.6750   -6.5780  -30.7670 C   0  0  0  0  0  0  0  0  0  0  0  0
  -27.6650   -7.1510  -32.0050 N   0  0  0  0  0  0  0  0  0  0  0  0
  -27.1500   -7.3300  -29.5750 N   0  0  0  0  0  0  0  0  0  0  0  0
  -28.1540   -6.2600  -32.8880 C   0  0  0  0  0  0  0  0  0  0  0  0
  -28.4620   -5.1400  -32.1790 N   0  0  0  0  0  0  0  0  0  0  0  0
  -28.1740   -5.3340  -30.9060 N   0  0  0  0  0  0  0  0  0  0  0  0
  -28.3400   -4.3730  -29.8720 C   0  0  0  0  0  0  0  0  0  0  0  0
  -28.8100   -3.1010  -30.1720 C   0  0  0  0  0  0  0  0  0  0  0  0
  -28.9520   -2.4760  -29.0280 O   0  0  0  0  0  0  0  0  0  0  0  0
  -28.2110   -4.4600  -28.4960 C   0  0  0  0  0  0  0  0  0  0  0  0
  -28.6130   -3.2320  -28.0130 C   0  0  0  0  0  0  0  0  0  0  0  0
  -27.9890   -7.6120  -28.4640 C   0  0  0  0  0  0  0  0  0  0  0  0
  -29.1860   -7.4320  -28.3910 O   0  0  0  0  0  0  0  0  0  0  0  0
  -27.3320   -8.2260  -27.2560 C   0  0  0  0  0  0  0  0  0  0  0  0
  -28.2680   -9.1370  -26.5700 C   0  0  0  0  0  0  0  0  0  0  0  0
  1  2  2  0
  1  6  1  0
  1  3  1  0
  2  4  1  0
  3 12  1  0
  4  5  2  0
  5  6  1  0
  6  7  1  0
 12 13  2  0
 12 14  1  0
  7  8  2  0
  7 10  1  0
  8  9  1  0
  9 11  1  0
 10 11  2  0
 14 15  1  0
M  END
>  <name>  (143) 
Car Nac Nd0 Car Nac Nac Car Car O_a Car Car Cs2 .=O Cs3 Cs3

>  <indices>  (143) 
[0, 1, 2]

>  <tasks>  (143) 
probe_placing close_aromatic_ring close_aromatic_ring close_aromatic_ring ring_built build_to_Nac close_aromatic_ring close_aromatic_ring close_aromatic_ring close_aromatic_ring build_to_Nd0 build_DB_to_Cs2 build_SB_to_Cs2

>  <prot_clashes>  (143) 
10

>  <NBS phar>  (143) 
0.2800000000000001

>  <NBS_non-phar>  (143) 
0.6236591339111328

>  <NBS>  (143) 
0.9036591339111328

>  <source_stage>  (143) 
scored

>  <source_iter>  (143) 
12

>  <source_parent_mol>  (143) 
3

>  <source_scenario>  (143) 
1 2 3 1 4 0 5 1 0 9 0 3

>  <source_rank_in_scored_call>  (143) 
7

>  <source_current_task>  (143) 
no_task

>  <scenario>  (143) 
1 2 3 1 4 0 5 1 0 9 0

>  <protected_ring_attachments>  (143) 
1,0,5,6|0,5,6;3,1,0,2|1,0,2;3,4,5,6|4,5,6;4,5,0,2|5,0,2

>  <current_task>  (143) 
no_task

>  <rotatable_bond_torsions>  (143) 
1,0,2,11;0,2,11,13;0,5,6,7

$$$$

     RDKit          3D

 15 16  0  0  0  0  0  0  0  0999 V2000
  -27.6730   -6.5780  -30.7660 C   0  0  0  0  0  0  0  0  0  0  0  0
  -27.6620   -7.1510  -32.0040 N   0  0  0  0  0  0  0  0  0  0  0  0
  -27.1510   -7.3320  -29.5740 N   0  0  0  0  0  0  0  0  0  0  0  0
  -28.1480   -6.2600  -32.8880 C   0  0  0  0  0  0  0  0  0  0  0  0
  -28.4560   -5.1400  -32.1790 N   0  0  0  0  0  0  0  0  0  0  0  0
  -28.1700   -5.3340  -30.9060 N   0  0  0  0  0  0  0  0  0  0  0  0
  -28.3370   -4.3730  -29.8720 C   0  0  0  0  0  0  0  0  0  0  0  0
  -28.8060   -3.1010  -30.1720 C   0  0  0  0  0  0  0  0  0  0  0  0
  -28.9490   -2.4760  -29.0280 O   0  0  0  0  0  0  0  0  0  0  0  0
  -28.2100   -4.4610  -28.4950 C   0  0  0  0  0  0  0  0  0  0  0  0
  -28.6120   -3.2330  -28.0130 C   0  0  0  0  0  0  0  0  0  0  0  0
  -27.9910   -7.6130  -28.4640 C   0  0  0  0  0  0  0  0  0  0  0  0
  -29.1880   -7.4310  -28.3930 O   0  0  0  0  0  0  0  0  0  0  0  0
  -27.3370   -8.2280  -27.2550 C   0  0  0  0  0  0  0  0  0  0  0  0
  -27.8580   -9.6130  -26.9330 C   0  0  0  0  0  0  0  0  0  0  0  0
  1  2  2  0
  1  6  1  0
  1  3  1  0
  2  4  1  0
  3 12  1  0
  4  5  2  0
  5  6  1  0
  6  7  1  0
 12 13  2  0
 12 14  1  0
  7  8  2  0
  7 10  1  0
  8  9  1  0
  9 11  1  0
 10 11  2  0
 14 15  1  0
M  END
>  <name>  (144) 
Car Nac Nd0 Car Nac Nac Car Car O_a Car Car Cs2 .=O Cs3 Cs3

>  <indices>  (144) 
[0, 1, 2]

>  <tasks>  (144) 
probe_placing close_aromatic_ring close_aromatic_ring close_aromatic_ring ring_built build_to_Nac close_aromatic_ring close_aromatic_ring close_aromatic_ring close_aromatic_ring build_to_Nd0 build_DB_to_Cs2 build_SB_to_Cs2

>  <prot_clashes>  (144) 
9

>  <NBS phar>  (144) 
0.2800000000000001

>  <NBS_non-phar>  (144) 
0.6227586746215821

>  <NBS>  (144) 
0.9027586746215821

>  <source_stage>  (144) 
scored

>  <source_iter>  (144) 
12

>  <source_parent_mol>  (144) 
3

>  <source_scenario>  (144) 
1 2 3 1 4 0 5 1 0 9 0 3

>  <source_rank_in_scored_call>  (144) 
8

>  <source_current_task>  (144) 
no_task

>  <scenario>  (144) 
1 2 3 1 4 0 5 1 0 9 0

>  <protected_ring_attachments>  (144) 
1,0,5,6|0,5,6;3,1,0,2|1,0,2;3,4,5,6|4,5,6;4,5,0,2|5,0,2

>  <current_task>  (144) 
no_task

>  <rotatable_bond_torsions>  (144) 
1,0,2,11;0,2,11,13;0,5,6,7

$$$$

     RDKit          3D

 15 16  0  0  0  0  0  0  0  0999 V2000
  -27.6460   -6.6870  -30.9660 C   0  0  0  0  0  0  0  0  0  0  0  0
  -27.5670   -7.0970  -32.2640 N   0  0  0  0  0  0  0  0  0  0  0  0
  -27.1230   -7.5600  -29.8580 N   0  0  0  0  0  0  0  0  0  0  0  0
  -28.0700   -6.1240  -33.0470 C   0  0  0  0  0  0  0  0  0  0  0  0
  -28.4580   -5.1190  -32.2150 N   0  0  0  0  0  0  0  0  0  0  0  0
  -28.2030   -5.4600  -30.9670 N   0  0  0  0  0  0  0  0  0  0  0  0
  -28.4510   -4.6470  -29.8270 C   0  0  0  0  0  0  0  0  0  0  0  0
  -28.9750   -3.3710  -29.9830 C   0  0  0  0  0  0  0  0  0  0  0  0
  -29.1860   -2.9040  -28.7750 O   0  0  0  0  0  0  0  0  0  0  0  0
  -28.3620   -4.9030  -28.4680 C   0  0  0  0  0  0  0  0  0  0  0  0
  -28.8420   -3.7670  -27.8510 C   0  0  0  0  0  0  0  0  0  0  0  0
  -27.9820   -8.0200  -28.8250 C   0  0  0  0  0  0  0  0  0  0  0  0
  -29.1880   -7.9060  -28.7760 O   0  0  0  0  0  0  0  0  0  0  0  0
  -27.3350   -8.7520  -27.6790 C   0  0  0  0  0  0  0  0  0  0  0  0
  -28.0570   -8.3680  -26.3620 C   0  0  0  0  0  0  0  0  0  0  0  0
  1  2  2  0
  1  6  1  0
  1  3  1  0
  2  4  1  0
  3 12  1  0
  4  5  2  0
  5  6  1  0
  6  7  1  0
 12 13  2  0
 12 14  1  0
  7  8  2  0
  7 10  1  0
  8  9  1  0
  9 11  1  0
 10 11  2  0
 14 15  1  0
M  END
>  <name>  (145) 
Car Nac Nd0 Car Nac Nac Car Car O_a Car Car Cs2 .=O Cs3 Cs3

>  <indices>  (145) 
[0, 1, 2]

>  <tasks>  (145) 
probe_placing close_aromatic_ring close_aromatic_ring close_aromatic_ring ring_built build_to_Nac close_aromatic_ring close_aromatic_ring close_aromatic_ring close_aromatic_ring build_to_Nd0 build_DB_to_Cs2 build_SB_to_Cs2

>  <prot_clashes>  (145) 
12

>  <NBS phar>  (145) 
0.26000000000000006

>  <NBS_non-phar>  (145) 
0.5929022471110026

>  <NBS>  (145) 
0.8529022471110026

>  <source_stage>  (145) 
scored

>  <source_iter>  (145) 
12

>  <source_parent_mol>  (145) 
3

>  <source_scenario>  (145) 
1 2 3 1 4 0 5 1 0 9 0 3

>  <source_rank_in_scored_call>  (145) 
13

>  <source_current_task>  (145) 
no_task

>  <scenario>  (145) 
1 2 3 1 4 0 5 1 0 9 0

>  <protected_ring_attachments>  (145) 
1,0,5,6|0,5,6;3,1,0,2|1,0,2;3,4,5,6|4,5,6;4,5,0,2|5,0,2

>  <current_task>  (145) 
no_task

>  <rotatable_bond_torsions>  (145) 
1,0,2,11;0,2,11,13;0,5,6,7

$$$$

     RDKit          3D

 19 21  0  0  0  0  0  0  0  0999 V2000
  -27.6550   -6.5500  -30.7600 C   0  0  0  0  0  0  0  0  0  0  0  0
  -27.6850   -7.1570  -31.9810 N   0  0  0  0  0  0  0  0  0  0  0  0
  -27.1830   -7.3040  -29.5450 N   0  0  0  0  0  0  0  0  0  0  0  0
  -28.1100   -6.2600  -32.8880 C   0  0  0  0  0  0  0  0  0  0  0  0
  -28.3390   -5.1020  -32.2110 N   0  0  0  0  0  0  0  0  0  0  0  0
  -28.0640   -5.2790  -30.9340 N   0  0  0  0  0  0  0  0  0  0  0  0
  -28.1620   -4.2800  -29.9280 C   0  0  0  0  0  0  0  0  0  0  0  0
  -28.5430   -2.9870  -30.2630 C   0  0  0  0  0  0  0  0  0  0  0  0
  -28.6400   -2.3220  -29.1370 O   0  0  0  0  0  0  0  0  0  0  0  0
  -28.0390   -4.3370  -28.5490 C   0  0  0  0  0  0  0  0  0  0  0  0
  -28.3530   -3.0710  -28.1010 C   0  0  0  0  0  0  0  0  0  0  0  0
  -28.0390   -7.4940  -28.4280 C   0  0  0  0  0  0  0  0  0  0  0  0
  -29.2200   -7.2290  -28.3630 O   0  0  0  0  0  0  0  0  0  0  0  0
  -27.4260   -8.1200  -27.2040 C   0  0  0  0  0  0  0  0  0  0  0  0
  -27.6530   -9.5780  -26.9520 C   0  0  0  0  0  0  0  0  0  0  0  0
  -27.7580  -10.4550  -28.0120 C   0  0  0  0  0  0  0  0  0  0  0  0
  -28.2280  -11.6470  -27.6040 N   0  0  0  0  0  0  0  0  0  0  0  0
  -28.4380  -11.5630  -26.2570 C   0  0  0  0  0  0  0  0  0  0  0  0
  -28.0900  -10.2930  -25.8310 C   0  0  0  0  0  0  0  0  0  0  0  0
  1  2  2  0
  1  6  1  0
  1  3  1  0
  2  4  1  0
  3 12  1  0
  4  5  2  0
  5  6  1  0
  6  7  1  0
 12 13  2  0
 12 14  1  0
  7  8  2  0
  7 10  1  0
  8  9  1  0
  9 11  1  0
 10 11  2  0
 14 15  1  0
 15 16  2  0
 15 19  1  0
 16 17  1  0
 17 18  1  0
 18 19  2  0
M  END
>  <name>  (146) 
Car Nac Nd0 Car Nac Nac Car Car O_a Car Car Cs2 .=O Cs3 Car Car Nd0 Car Car

>  <indices>  (146) 
[0, 1, 2]

>  <tasks>  (146) 
probe_placing close_aromatic_ring close_aromatic_ring close_aromatic_ring ring_built build_to_Nac close_aromatic_ring close_aromatic_ring close_aromatic_ring close_aromatic_ring build_to_Nd0 build_DB_to_Cs2 build_SB_to_Cs2 no_task close_aromatic_ring close_aromatic_ring close_aromatic_ring

>  <prot_clashes>  (146) 
9

>  <NBS phar>  (146) 
0.3200000000000001

>  <NBS_non-phar>  (146) 
0.4731727399324116

>  <NBS>  (146) 
0.7931727399324118

>  <source_stage>  (146) 
scored

>  <source_iter>  (146) 
16

>  <source_parent_mol>  (146) 
0

>  <source_scenario>  (146) 
1 2 3 1 4 0 5 1 0 9 0 3 7 0 2 0

>  <source_rank_in_scored_call>  (146) 
0

>  <source_current_task>  (146) 
close_aromatic_ring

>  <scenario>  (146) 
1 2 3 1 4 0 5 1 0 9 0 3 7 0 2

>  <protected_ring_attachments>  (146) 
1,0,5,6|0,5,6;3,1,0,2|1,0,2;3,4,5,6|4,5,6;4,5,0,2|5,0,2

>  <current_task>  (146) 
no_task

>  <rotatable_bond_torsions>  (146) 
1,0,2,11;0,2,11,13;0,5,6,7;2,11,13,14;11,13,14,15;14,15,16,17

$$$$

     RDKit          3D

 19 21  0  0  0  0  0  0  0  0999 V2000
  -27.7880   -6.4770  -30.9220 C   0  0  0  0  0  0  0  0  0  0  0  0
  -27.6900   -6.9600  -32.1950 N   0  0  0  0  0  0  0  0  0  0  0  0
  -27.4160   -7.3440  -29.7490 N   0  0  0  0  0  0  0  0  0  0  0  0
  -28.0480   -5.9800  -33.0460 C   0  0  0  0  0  0  0  0  0  0  0  0
  -28.3650   -4.8990  -32.2830 N   0  0  0  0  0  0  0  0  0  0  0  0
  -28.2080   -5.2010  -31.0090 N   0  0  0  0  0  0  0  0  0  0  0  0
  -28.4220   -4.3090  -29.9220 C   0  0  0  0  0  0  0  0  0  0  0  0
  -28.7960   -2.9950  -30.1630 C   0  0  0  0  0  0  0  0  0  0  0  0
  -29.0140   -2.4470  -28.9920 O   0  0  0  0  0  0  0  0  0  0  0  0
  -28.4260   -4.5030  -28.5500 C   0  0  0  0  0  0  0  0  0  0  0  0
  -28.8090   -3.2930  -28.0120 C   0  0  0  0  0  0  0  0  0  0  0  0
  -28.3670   -7.6570  -28.7440 C   0  0  0  0  0  0  0  0  0  0  0  0
  -29.5560   -7.4140  -28.7640 O   0  0  0  0  0  0  0  0  0  0  0  0
  -27.8580   -8.3940  -27.5340 C   0  0  0  0  0  0  0  0  0  0  0  0
  -28.1130   -9.8690  -27.4900 C   0  0  0  0  0  0  0  0  0  0  0  0
  -29.4290  -10.3080  -27.4920 C   0  0  0  0  0  0  0  0  0  0  0  0
  -29.4170  -11.6170  -27.1760 N   0  0  0  0  0  0  0  0  0  0  0  0
  -28.1550  -12.0410  -26.9690 C   0  0  0  0  0  0  0  0  0  0  0  0
  -27.3250  -10.9540  -27.1630 C   0  0  0  0  0  0  0  0  0  0  0  0
  1  2  2  0
  1  6  1  0
  1  3  1  0
  2  4  1  0
  3 12  1  0
  4  5  2  0
  5  6  1  0
  6  7  1  0
 12 13  2  0
 12 14  1  0
  7  8  2  0
  7 10  1  0
  8  9  1  0
  9 11  1  0
 10 11  2  0
 14 15  1  0
 15 16  2  0
 15 19  1  0
 16 17  1  0
 17 18  1  0
 18 19  2  0
M  END
>  <name>  (147) 
Car Nac Nd0 Car Nac Nac Car Car O_a Car Car Cs2 .=O Cs3 Car Car Nd0 Car Car

>  <indices>  (147) 
[0, 1, 2]

>  <tasks>  (147) 
probe_placing close_aromatic_ring close_aromatic_ring close_aromatic_ring ring_built build_to_Nac close_aromatic_ring close_aromatic_ring close_aromatic_ring close_aromatic_ring build_to_Nd0 build_DB_to_Cs2 build_SB_to_Cs2 no_task close_aromatic_ring close_aromatic_ring close_aromatic_ring

>  <prot_clashes>  (147) 
8

>  <NBS phar>  (147) 
0.26000000000000006

>  <NBS_non-phar>  (147) 
0.49561595916748047

>  <NBS>  (147) 
0.7556159591674805

>  <source_stage>  (147) 
scored

>  <source_iter>  (147) 
16

>  <source_parent_mol>  (147) 
0

>  <source_scenario>  (147) 
1 2 3 1 4 0 5 1 0 9 0 3 7 1 0 0

>  <source_rank_in_scored_call>  (147) 
0

>  <source_current_task>  (147) 
close_aromatic_ring

>  <scenario>  (147) 
1 2 3 1 4 0 5 1 0 9 0 3 7 1 0

>  <protected_ring_attachments>  (147) 
1,0,5,6|0,5,6;3,1,0,2|1,0,2;3,4,5,6|4,5,6;4,5,0,2|5,0,2

>  <current_task>  (147) 
no_task

>  <rotatable_bond_torsions>  (147) 
1,0,2,11;0,2,11,13;0,5,6,7;2,11,13,14;11,13,14,15;14,15,16,17

$$$$

     RDKit          3D

 19 21  0  0  0  0  0  0  0  0999 V2000
  -27.6560   -6.5540  -30.7600 C   0  0  0  0  0  0  0  0  0  0  0  0
  -27.6880   -7.1550  -31.9860 N   0  0  0  0  0  0  0  0  0  0  0  0
  -27.1880   -7.3160  -29.5510 N   0  0  0  0  0  0  0  0  0  0  0  0
  -28.1110   -6.2520  -32.8880 C   0  0  0  0  0  0  0  0  0  0  0  0
  -28.3370   -5.0970  -32.2070 N   0  0  0  0  0  0  0  0  0  0  0  0
  -28.0630   -5.2810  -30.9310 N   0  0  0  0  0  0  0  0  0  0  0  0
  -28.1570   -4.2870  -29.9190 C   0  0  0  0  0  0  0  0  0  0  0  0
  -28.5340   -2.9920  -30.2480 C   0  0  0  0  0  0  0  0  0  0  0  0
  -28.6300   -2.3300  -29.1190 O   0  0  0  0  0  0  0  0  0  0  0  0
  -28.0340   -4.3500  -28.5390 C   0  0  0  0  0  0  0  0  0  0  0  0
  -28.3450   -3.0870  -28.0870 C   0  0  0  0  0  0  0  0  0  0  0  0
  -28.0450   -7.5100  -28.4350 C   0  0  0  0  0  0  0  0  0  0  0  0
  -29.2250   -7.2400  -28.3680 O   0  0  0  0  0  0  0  0  0  0  0  0
  -27.4340   -8.1420  -27.2130 C   0  0  0  0  0  0  0  0  0  0  0  0
  -27.7310   -9.6560  -26.9540 C   0  0  0  0  0  0  0  0  0  0  0  0
  -28.4380  -10.0570  -25.8340 C   0  0  0  0  0  0  0  0  0  0  0  0
  -28.5520  -11.3990  -25.8530 N   0  0  0  0  0  0  0  0  0  0  0  0
  -27.4030  -10.8020  -27.6830 C   0  0  0  0  0  0  0  0  0  0  0  0
  -27.9330  -11.8520  -26.9600 C   0  0  0  0  0  0  0  0  0  0  0  0
  1  2  2  0
  1  6  1  0
  1  3  1  0
  2  4  1  0
  3 12  1  0
  4  5  2  0
  5  6  1  0
  6  7  1  0
 12 13  2  0
 12 14  1  0
  7  8  2  0
  7 10  1  0
  8  9  1  0
  9 11  1  0
 10 11  2  0
 14 15  1  0
 15 18  1  0
 15 16  2  0
 16 17  1  0
 17 19  1  0
 18 19  2  0
M  END
>  <name>  (148) 
Car Nac Nd0 Car Nac Nac Car Car O_a Car Car Cs2 .=O Cs3 Car Car Nd0 Car Car

>  <indices>  (148) 
[0, 1, 2]

>  <tasks>  (148) 
probe_placing close_aromatic_ring close_aromatic_ring close_aromatic_ring ring_built build_to_Nac close_aromatic_ring close_aromatic_ring close_aromatic_ring close_aromatic_ring build_to_Nd0 build_DB_to_Cs2 build_SB_to_Cs2 no_task close_aromatic_ring close_aromatic_ring close_aromatic_ring

>  <prot_clashes>  (148) 
10

>  <NBS phar>  (148) 
0.3000000000000001

>  <NBS_non-phar>  (148) 
0.4704766524465461

>  <NBS>  (148) 
0.7704766524465462

>  <source_stage>  (148) 
scored

>  <source_iter>  (148) 
16

>  <source_parent_mol>  (148) 
0

>  <source_scenario>  (148) 
1 2 3 1 4 0 5 1 0 9 0 3 7 3 1 0

>  <source_rank_in_scored_call>  (148) 
1

>  <source_current_task>  (148) 
close_aromatic_ring

>  <scenario>  (148) 
1 2 3 1 4 0 5 1 0 9 0 3 7 3 1

>  <protected_ring_attachments>  (148) 
1,0,5,6|0,5,6;3,1,0,2|1,0,2;3,4,5,6|4,5,6;4,5,0,2|5,0,2

>  <current_task>  (148) 
no_task

>  <rotatable_bond_torsions>  (148) 
1,0,2,11;0,2,11,13;0,5,6,7;2,11,13,14;11,13,14,15

$$$$

     RDKit          3D

 20 22  0  0  0  0  0  0  0  0999 V2000
  -27.7510   -6.6020  -31.0560 C   0  0  0  0  0  0  0  0  0  0  0  0
  -27.4750   -6.9580  -32.3430 N   0  0  0  0  0  0  0  0  0  0  0  0
  -27.5700   -7.5890  -29.9370 N   0  0  0  0  0  0  0  0  0  0  0  0
  -27.6860   -5.8900  -33.1340 C   0  0  0  0  0  0  0  0  0  0  0  0
  -28.0940   -4.8780  -32.3200 N   0  0  0  0  0  0  0  0  0  0  0  0
  -28.1330   -5.3090  -31.0720 N   0  0  0  0  0  0  0  0  0  0  0  0
  -28.4900   -4.5250  -29.9440 C   0  0  0  0  0  0  0  0  0  0  0  0
  -28.8040   -3.1810  -30.1000 C   0  0  0  0  0  0  0  0  0  0  0  0
  -29.1840   -2.7450  -28.9230 O   0  0  0  0  0  0  0  0  0  0  0  0
  -28.7030   -4.8520  -28.6140 C   0  0  0  0  0  0  0  0  0  0  0  0
  -29.1410   -3.6890  -28.0150 C   0  0  0  0  0  0  0  0  0  0  0  0
  -28.6660   -7.9720  -29.1170 C   0  0  0  0  0  0  0  0  0  0  0  0
  -29.8320   -7.6900  -29.2850 O   0  0  0  0  0  0  0  0  0  0  0  0
  -28.3040   -8.8400  -27.9030 C   0  0  0  0  0  0  0  0  0  0  0  0
  -28.6130  -10.2030  -27.9250 C   0  0  0  0  0  0  0  0  0  0  0  0
  -27.8740   -8.2300  -26.7210 C   0  0  0  0  0  0  0  0  0  0  0  0
  -28.4940  -10.9450  -26.7770 C   0  0  0  0  0  0  0  0  0  0  0  0
  -27.7520   -8.9770  -25.5650 C   0  0  0  0  0  0  0  0  0  0  0  0
  -28.0640  -10.3210  -25.6100 C   0  0  0  0  0  0  0  0  0  0  0  0
  -29.0750  -10.8550  -29.2040 C   0  0  0  0  0  0  0  0  0  0  0  0
  1  2  2  0
  1  6  1  0
  1  3  1  0
  2  4  1  0
  3 12  1  0
  4  5  2  0
  5  6  1  0
  6  7  1  0
 12 13  2  0
 12 14  1  0
 14 15  2  0
 14 16  1  0
 15 20  1  0
 15 17  1  0
 16 18  2  0
 17 19  2  0
 18 19  1  0
  7  8  2  0
  7 10  1  0
  8  9  1  0
  9 11  1  0
 10 11  2  0
M  END
>  <name>  (149) 
Car Nac Nd0 Car Nac Nac Car Car O_a Car Car Cs2 .=O Car Car Car Car Car Car Cs3

>  <indices>  (149) 
[0, 1, 2]

>  <tasks>  (149) 
probe_placing close_aromatic_ring close_aromatic_ring close_aromatic_ring ring_built build_to_Nac close_aromatic_ring close_aromatic_ring close_aromatic_ring close_aromatic_ring build_to_Nd0 build_DB_to_Cs2 build_SB_to_Cs2 close_aromatic_ring close_aromatic_ring close_aromatic_ring close_aromatic_ring close_aromatic_ring

>  <prot_clashes>  (149) 
12

>  <NBS phar>  (149) 
0.2800000000000001

>  <NBS_non-phar>  (149) 
0.4857141971588135

>  <NBS>  (149) 
0.7657141971588135

>  <source_stage>  (149) 
scored

>  <source_iter>  (149) 
17

>  <source_parent_mol>  (149) 
0

>  <source_scenario>  (149) 
1 2 3 1 4 0 5 1 0 9 0 4 3 0 0 2 0

>  <source_rank_in_scored_call>  (149) 
8

>  <source_current_task>  (149) 
build_orthosubstituent_to_rotated_amide

>  <scenario>  (149) 
1 2 3 1 4 0 5 1 0 9 0 4 3 0 0 2

>  <protected_ring_attachments>  (149) 
1,0,5,6|0,5,6;3,1,0,2|1,0,2;3,4,5,6|4,5,6;4,5,0,2|5,0,2

>  <current_task>  (149) 
no_task

>  <rotatable_bond_torsions>  (149) 
1,0,2,11;0,2,11,13;0,5,6,7;2,11,13,14

>  <flag ortho>  (149) 


$$$$

     RDKit          3D

 18 20  0  0  0  0  0  0  0  0999 V2000
  -27.6980   -6.4570  -30.7550 C   0  0  0  0  0  0  0  0  0  0  0  0
  -27.4310   -6.9440  -32.0000 N   0  0  0  0  0  0  0  0  0  0  0  0
  -27.4860   -7.3180  -29.5390 N   0  0  0  0  0  0  0  0  0  0  0  0
  -27.6760   -5.9710  -32.8970 C   0  0  0  0  0  0  0  0  0  0  0  0
  -28.0940   -4.8860  -32.1890 N   0  0  0  0  0  0  0  0  0  0  0  0
  -28.1080   -5.1820  -30.9030 N   0  0  0  0  0  0  0  0  0  0  0  0
  -28.4670   -4.2870  -29.8590 C   0  0  0  0  0  0  0  0  0  0  0  0
  -28.8120   -2.9750  -30.1540 C   0  0  0  0  0  0  0  0  0  0  0  0
  -29.1840   -2.4240  -29.0250 O   0  0  0  0  0  0  0  0  0  0  0  0
  -28.6560   -4.4770  -28.4990 C   0  0  0  0  0  0  0  0  0  0  0  0
  -29.1110   -3.2650  -28.0230 C   0  0  0  0  0  0  0  0  0  0  0  0
  -28.5610   -7.6290  -28.6670 C   0  0  0  0  0  0  0  0  0  0  0  0
  -29.7370   -7.3920  -28.8480 O   0  0  0  0  0  0  0  0  0  0  0  0
  -28.1480   -8.3490  -27.3780 C   0  0  0  0  0  0  0  0  0  0  0  0
  -29.0880   -8.7480  -26.4270 C   0  0  0  0  0  0  0  0  0  0  0  0
  -28.4260   -9.3370  -25.4130 N   0  0  0  0  0  0  0  0  0  0  0  0
  -26.9360   -8.7200  -26.8920 C   0  0  0  0  0  0  0  0  0  0  0  0
  -27.0990   -9.3420  -25.6570 C   0  0  0  0  0  0  0  0  0  0  0  0
  1  2  2  0
  1  6  1  0
  1  3  1  0
  2  4  1  0
  3 12  1  0
  4  5  2  0
  5  6  1  0
  6  7  1  0
 12 13  2  0
 12 14  1  0
 14 17  1  0
 14 15  2  0
 15 16  1  0
 16 18  1  0
 17 18  2  0
  7  8  2  0
  7 10  1  0
  8  9  1  0
  9 11  1  0
 10 11  2  0
M  END
>  <name>  (150) 
Car Nac Nd0 Car Nac Nac Car Car O_a Car Car Cs2 .=O Car Car Nd0 Car Car

>  <indices>  (150) 
[0, 1, 2]

>  <tasks>  (150) 
probe_placing close_aromatic_ring close_aromatic_ring close_aromatic_ring ring_built build_to_Nac close_aromatic_ring close_aromatic_ring close_aromatic_ring close_aromatic_ring build_to_Nd0 build_DB_to_Cs2 build_SB_to_Cs2 close_aromatic_ring close_aromatic_ring close_aromatic_ring

>  <prot_clashes>  (150) 
10

>  <NBS phar>  (150) 
0.24000000000000005

>  <NBS_non-phar>  (150) 
0.4224036799536811

>  <NBS>  (150) 
0.6624036799536812

>  <source_stage>  (150) 
scored

>  <source_iter>  (150) 
15

>  <source_parent_mol>  (150) 
0

>  <source_scenario>  (150) 
1 2 3 1 4 0 5 1 0 9 0 4 6 0 0

>  <source_rank_in_scored_call>  (150) 
0

>  <source_current_task>  (150) 
close_aromatic_ring

>  <scenario>  (150) 
1 2 3 1 4 0 5 1 0 9 0 4 6 0

>  <protected_ring_attachments>  (150) 
1,0,5,6|0,5,6;3,1,0,2|1,0,2;3,4,5,6|4,5,6;4,5,0,2|5,0,2

>  <current_task>  (150) 
no_task

>  <rotatable_bond_torsions>  (150) 
1,0,2,11;0,2,11,13;0,5,6,7;2,11,13,14

$$$$

     RDKit          3D

 19 21  0  0  0  0  0  0  0  0999 V2000
  -27.6660   -6.2380  -30.7880 C   0  0  0  0  0  0  0  0  0  0  0  0
  -27.5750   -6.6970  -32.0680 N   0  0  0  0  0  0  0  0  0  0  0  0
  -27.5290   -7.1860  -29.6270 N   0  0  0  0  0  0  0  0  0  0  0  0
  -27.7030   -5.6500  -32.9040 C   0  0  0  0  0  0  0  0  0  0  0  0
  -27.8730   -4.5480  -32.1220 N   0  0  0  0  0  0  0  0  0  0  0  0
  -27.8520   -4.9050  -30.8520 N   0  0  0  0  0  0  0  0  0  0  0  0
  -27.9750   -4.0180  -29.7490 C   0  0  0  0  0  0  0  0  0  0  0  0
  -28.1000   -2.6520  -29.9630 C   0  0  0  0  0  0  0  0  0  0  0  0
  -28.2900   -2.1060  -28.7880 O   0  0  0  0  0  0  0  0  0  0  0  0
  -28.1020   -4.2440  -28.3870 C   0  0  0  0  0  0  0  0  0  0  0  0
  -28.3010   -2.9990  -27.8290 C   0  0  0  0  0  0  0  0  0  0  0  0
  -28.5810   -7.3510  -28.6890 C   0  0  0  0  0  0  0  0  0  0  0  0
  -29.7060   -6.9030  -28.7710 O   0  0  0  0  0  0  0  0  0  0  0  0
  -28.2170   -8.2000  -27.4660 C   0  0  0  0  0  0  0  0  0  0  0  0
  -29.1460   -8.4790  -26.4630 C   0  0  0  0  0  0  0  0  0  0  0  0
  -28.5320   -9.2270  -25.5270 N   0  0  0  0  0  0  0  0  0  0  0  0
  -27.0600   -8.8020  -27.0890 C   0  0  0  0  0  0  0  0  0  0  0  0
  -27.2470   -9.4510  -25.8710 C   0  0  0  0  0  0  0  0  0  0  0  0
  -28.0290   -1.9370  -31.2900 C   0  0  0  0  0  0  0  0  0  0  0  0
  1  2  2  0
  1  6  1  0
  1  3  1  0
  2  4  1  0
  3 12  1  0
  4  5  2  0
  5  6  1  0
  6  7  1  0
 12 13  2  0
 12 14  1  0
  7  8  2  0
  7 10  1  0
  8 19  1  0
  8  9  1  0
  9 11  1  0
 10 11  2  0
 14 17  1  0
 14 15  2  0
 15 16  1  0
 16 18  1  0
 17 18  2  0
M  END
>  <name>  (151) 
Car Nac Nd0 Car Nac Nac Car Car O_a Car Car Cs2 .=O Car Car Nd0 Car Car Cs3

>  <indices>  (151) 
[0, 1, 2]

>  <tasks>  (151) 
probe_placing close_aromatic_ring close_aromatic_ring close_aromatic_ring ring_built build_to_Nac close_aromatic_ring close_aromatic_ring close_aromatic_ring close_aromatic_ring build_to_Nd0 build_DB_to_Cs2 build_SB_to_Cs2 close_aromatic_ring close_aromatic_ring close_aromatic_ring close_aromatic_ring

>  <prot_clashes>  (151) 
12

>  <NBS phar>  (151) 
0.36000000000000004

>  <NBS_non-phar>  (151) 
0.46528745952405426

>  <NBS>  (151) 
0.8252874595240542

>  <source_stage>  (151) 
scored

>  <source_iter>  (151) 
16

>  <source_parent_mol>  (151) 
0

>  <source_scenario>  (151) 
1 2 3 1 4 0 5 1 0 9 0 4 6 0 0 0

>  <source_rank_in_scored_call>  (151) 
3

>  <source_current_task>  (151) 
no_task

>  <scenario>  (151) 
1 2 3 1 4 0 5 1 0 9 0 4 6 0 0

>  <protected_ring_attachments>  (151) 
1,0,5,6|0,5,6;3,1,0,2|1,0,2;3,4,5,6|4,5,6;4,5,0,2|5,0,2

>  <current_task>  (151) 
no_task

>  <rotatable_bond_torsions>  (151) 
1,0,2,11;0,2,11,13;0,5,6,7;2,11,13,14

$$$$

     RDKit          3D

 14 15  0  0  0  0  0  0  0  0999 V2000
  -27.5380   -7.0460  -30.8730 C   0  0  0  0  0  0  0  0  0  0  0  0
  -27.3140   -6.5880  -32.1380 N   0  0  0  0  0  0  0  0  0  0  0  0
  -26.9770   -8.3690  -30.4310 N   0  0  0  0  0  0  0  0  0  0  0  0
  -27.8890   -5.3810  -32.2620 C   0  0  0  0  0  0  0  0  0  0  0  0
  -28.4680   -5.1020  -31.0620 N   0  0  0  0  0  0  0  0  0  0  0  0
  -28.2550   -6.1050  -30.2310 N   0  0  0  0  0  0  0  0  0  0  0  0
  -28.4180   -6.2860  -28.7640 C   0  0  0  0  0  0  0  0  0  0  0  0
  -27.9750   -9.5730  -30.3110 C   0  0  0  0  0  0  0  0  0  0  0  0
  -28.0620  -10.1170  -29.0470 C   0  0  0  0  0  0  0  0  0  0  0  0
  -28.9770  -11.1450  -28.8270 C   0  0  0  0  0  0  0  0  0  0  0  0
  -29.7790  -11.5990  -29.8770 C   0  0  0  0  0  0  0  0  0  0  0  0
  -29.6670  -11.0270  -31.1420 C   0  0  0  0  0  0  0  0  0  0  0  0
  -28.7510   -9.9950  -31.3730 C   0  0  0  0  0  0  0  0  0  0  0  0
  -27.2630   -9.6570  -28.0270 O   0  0  0  0  0  0  0  0  0  0  0  0
  1  2  2  0
  1  3  1  0
  1  6  1  0
  2  4  1  0
  3  8  1  0
  4  5  2  0
  5  6  1  0
  6  7  1  0
  8 13  1  0
  8  9  2  0
  9 10  1  0
  9 14  1  0
 10 11  2  0
 11 12  1  0
 12 13  2  0
M  CHG  1  14  -1
M  END
>  <name>  (152) 
Car Nac Nd0 Car Nac Nac Cs3 Car Car Car Car Car Car .=O

>  <indices>  (152) 
[0, 1, 2]

>  <tasks>  (152) 
probe_placing close_aromatic_ring close_aromatic_ring close_aromatic_ring ring_built build_to_Nac build_to_Nd0 close_aromatic_ring close_aromatic_ring close_aromatic_ring close_aromatic_ring close_aromatic_ring

>  <prot_clashes>  (152) 
2

>  <NBS phar>  (152) 
0.24

>  <NBS_non-phar>  (152) 
0.6189185551234654

>  <NBS>  (152) 
0.8589185551234654

>  <source_stage>  (152) 
scored

>  <source_iter>  (152) 
11

>  <source_parent_mol>  (152) 
0

>  <source_scenario>  (152) 
1 2 3 1 0 2 0 1 2 2 0

>  <source_rank_in_scored_call>  (152) 
0

>  <source_current_task>  (152) 
build_orthosubstituent_to_rotated_aniline_Nd0

>  <scenario>  (152) 
1 2 3 1 0 2 0 1 2 2

>  <protected_ring_attachments>  (152) 
3,1,0,2|1,0,2;4,5,0,2|5,0,2;9,8,7,2|8,7,2;11,12,7,2|12,7,2

>  <current_task>  (152) 
no_task

>  <rotatable_bond_torsions>  (152) 
1,0,2,7;0,2,7,8

>  <rotated_aniline_Nd0_dihedral>  (152) 
119.94

>  <rotated_aniline_Nd0_tolerance>  (152) 
60.0

>  <rotated_aniline_Nd0_context>  (152) 
diarylamine

>  <rotated_aniline_Nd0_substituent_idx>  (152) 
0

>  <rotated_aniline_Nd0_ring>  (152) 
8 9 10 11 12 7

>  <flag ortho>  (152) 


$$$$

     RDKit          3D

 14 15  0  0  0  0  0  0  0  0999 V2000
  -27.5920   -7.0140  -30.8790 C   0  0  0  0  0  0  0  0  0  0  0  0
  -27.3140   -6.5700  -32.1380 N   0  0  0  0  0  0  0  0  0  0  0  0
  -27.0100   -8.3090  -30.3820 N   0  0  0  0  0  0  0  0  0  0  0  0
  -27.9240   -5.3870  -32.3160 C   0  0  0  0  0  0  0  0  0  0  0  0
  -28.5770   -5.1090  -31.1550 N   0  0  0  0  0  0  0  0  0  0  0  0
  -28.3750   -6.0890  -30.2950 N   0  0  0  0  0  0  0  0  0  0  0  0
  -28.6120   -6.2500  -28.8350 C   0  0  0  0  0  0  0  0  0  0  0  0
  -27.9710   -9.5450  -30.2940 C   0  0  0  0  0  0  0  0  0  0  0  0
  -28.1090  -10.0710  -29.0260 C   0  0  0  0  0  0  0  0  0  0  0  0
  -28.9980  -11.1260  -28.8370 C   0  0  0  0  0  0  0  0  0  0  0  0
  -29.7250  -11.6260  -29.9200 C   0  0  0  0  0  0  0  0  0  0  0  0
  -29.5630  -11.0720  -31.1880 C   0  0  0  0  0  0  0  0  0  0  0  0
  -28.6730  -10.0130  -31.3880 C   0  0  0  0  0  0  0  0  0  0  0  0
  -27.3130   -9.5160  -27.8700 C   0  0  0  0  0  0  0  0  0  0  0  0
  1  2  2  0
  1  3  1  0
  1  6  1  0
  2  4  1  0
  3  8  1  0
  4  5  2  0
  5  6  1  0
  6  7  1  0
  8 13  1  0
  8  9  2  0
  9 10  1  0
  9 14  1  0
 10 11  2  0
 11 12  1  0
 12 13  2  0
M  END
>  <name>  (153) 
Car Nac Nd0 Car Nac Nac Cs3 Car Car Car Car Car Car Cs3

>  <indices>  (153) 
[0, 1, 2]

>  <tasks>  (153) 
probe_placing close_aromatic_ring close_aromatic_ring close_aromatic_ring ring_built build_to_Nac build_to_Nd0 close_aromatic_ring close_aromatic_ring close_aromatic_ring close_aromatic_ring close_aromatic_ring

>  <prot_clashes>  (153) 
1

>  <NBS phar>  (153) 
0.1

>  <NBS_non-phar>  (153) 
0.5984688486371722

>  <NBS>  (153) 
0.6984688486371722

>  <source_stage>  (153) 
scored

>  <source_iter>  (153) 
11

>  <source_parent_mol>  (153) 
0

>  <source_scenario>  (153) 
1 2 3 1 0 2 0 1 2 2 0

>  <source_rank_in_scored_call>  (153) 
7

>  <source_current_task>  (153) 
build_orthosubstituent_to_rotated_aniline_Nd0

>  <scenario>  (153) 
1 2 3 1 0 2 0 1 2 2

>  <protected_ring_attachments>  (153) 
3,1,0,2|1,0,2;4,5,0,2|5,0,2;9,8,7,2|8,7,2;11,12,7,2|12,7,2

>  <current_task>  (153) 
no_task

>  <rotatable_bond_torsions>  (153) 
1,0,2,7;0,2,7,8

>  <rotated_aniline_Nd0_dihedral>  (153) 
119.94

>  <rotated_aniline_Nd0_tolerance>  (153) 
60.0

>  <rotated_aniline_Nd0_context>  (153) 
diarylamine

>  <rotated_aniline_Nd0_substituent_idx>  (153) 
0

>  <rotated_aniline_Nd0_ring>  (153) 
8 9 10 11 12 7

>  <flag ortho>  (153) 


$$$$

     RDKit          3D

 14 15  0  0  0  0  0  0  0  0999 V2000
  -27.6910   -6.9640  -30.6720 C   0  0  0  0  0  0  0  0  0  0  0  0
  -27.5170   -6.9510  -32.0240 N   0  0  0  0  0  0  0  0  0  0  0  0
  -27.1430   -8.0930  -29.8440 N   0  0  0  0  0  0  0  0  0  0  0  0
  -28.0660   -5.8280  -32.5130 C   0  0  0  0  0  0  0  0  0  0  0  0
  -28.5790   -5.1510  -31.4500 N   0  0  0  0  0  0  0  0  0  0  0  0
  -28.3510   -5.8380  -30.3450 N   0  0  0  0  0  0  0  0  0  0  0  0
  -28.4470   -5.5250  -28.8940 C   0  0  0  0  0  0  0  0  0  0  0  0
  -28.1660   -9.1510  -29.3000 C   0  0  0  0  0  0  0  0  0  0  0  0
  -28.2050   -9.2520  -27.9250 C   0  0  0  0  0  0  0  0  0  0  0  0
  -29.1340  -10.1140  -27.3470 C   0  0  0  0  0  0  0  0  0  0  0  0
  -29.9980  -10.8520  -28.1600 C   0  0  0  0  0  0  0  0  0  0  0  0
  -29.9330  -10.7270  -29.5460 C   0  0  0  0  0  0  0  0  0  0  0  0
  -29.0040   -9.8640  -30.1360 C   0  0  0  0  0  0  0  0  0  0  0  0
  -28.9180   -9.7160  -31.6350 C   0  0  0  0  0  0  0  0  0  0  0  0
  1  2  2  0
  1  6  1  0
  1  3  1  0
  2  4  1  0
  3  8  1  0
  4  5  2  0
  5  6  1  0
  6  7  1  0
  8 13  1  0
  8  9  2  0
  9 10  1  0
 10 11  2  0
 11 12  1  0
 12 13  2  0
 13 14  1  0
M  END
>  <name>  (154) 
Car Nac Nd0 Car Nac Nac Cs3 Car Car Car Car Car Car Cs3

>  <indices>  (154) 
[0, 1, 2]

>  <tasks>  (154) 
probe_placing close_aromatic_ring close_aromatic_ring close_aromatic_ring ring_built build_to_Nac build_to_Nd0 close_aromatic_ring close_aromatic_ring close_aromatic_ring close_aromatic_ring close_aromatic_ring

>  <prot_clashes>  (154) 
3

>  <NBS phar>  (154) 
0.1

>  <NBS_non-phar>  (154) 
0.49782681465148926

>  <NBS>  (154) 
0.5978268146514892

>  <source_stage>  (154) 
scored

>  <source_iter>  (154) 
11

>  <source_parent_mol>  (154) 
0

>  <source_scenario>  (154) 
1 2 3 1 0 2 0 1 2 2 0

>  <source_rank_in_scored_call>  (154) 
22

>  <source_current_task>  (154) 
build_orthosubstituent_to_rotated_aniline_Nd0

>  <scenario>  (154) 
1 2 3 1 0 2 0 1 2 2

>  <protected_ring_attachments>  (154) 
3,1,0,2|1,0,2;4,5,0,2|5,0,2;9,8,7,2|8,7,2;11,12,7,2|12,7,2

>  <current_task>  (154) 
no_task

>  <rotatable_bond_torsions>  (154) 
1,0,2,7;0,2,7,8

>  <rotated_aniline_Nd0_dihedral>  (154) 
119.94

>  <rotated_aniline_Nd0_tolerance>  (154) 
60.0

>  <rotated_aniline_Nd0_context>  (154) 
diarylamine

>  <rotated_aniline_Nd0_substituent_idx>  (154) 
0

>  <rotated_aniline_Nd0_ring>  (154) 
8 9 10 11 12 7

>  <flag ortho>  (154) 


$$$$

     RDKit          3D

 14 15  0  0  0  0  0  0  0  0999 V2000
  -27.7250   -7.0210  -30.8460 C   0  0  0  0  0  0  0  0  0  0  0  0
  -27.4950   -6.8010  -32.1720 N   0  0  0  0  0  0  0  0  0  0  0  0
  -27.1820   -8.2510  -30.1730 N   0  0  0  0  0  0  0  0  0  0  0  0
  -28.0540   -5.6290  -32.5120 C   0  0  0  0  0  0  0  0  0  0  0  0
  -28.6290   -5.1310  -31.3840 N   0  0  0  0  0  0  0  0  0  0  0  0
  -28.4290   -5.9710  -30.3850 N   0  0  0  0  0  0  0  0  0  0  0  0
  -28.5950   -5.8830  -28.9100 C   0  0  0  0  0  0  0  0  0  0  0  0
  -28.1970   -9.4000  -29.8410 C   0  0  0  0  0  0  0  0  0  0  0  0
  -28.2910   -9.7080  -28.5000 C   0  0  0  0  0  0  0  0  0  0  0  0
  -29.2200  -10.6660  -28.1010 C   0  0  0  0  0  0  0  0  0  0  0  0
  -30.0280  -11.2910  -29.0540 C   0  0  0  0  0  0  0  0  0  0  0  0
  -29.9080  -10.9570  -30.4010 C   0  0  0  0  0  0  0  0  0  0  0  0
  -28.9790   -9.9960  -30.8120 C   0  0  0  0  0  0  0  0  0  0  0  0
  -28.8480   -9.6550  -32.1370 O   0  0  0  0  0  0  0  0  0  0  0  0
  1  2  2  0
  1  6  1  0
  1  3  1  0
  2  4  1  0
  3  8  1  0
  4  5  2  0
  5  6  1  0
  6  7  1  0
  8 13  1  0
  8  9  2  0
  9 10  1  0
 10 11  2  0
 11 12  1  0
 12 13  2  0
 13 14  1  0
M  CHG  1  14  -1
M  END
>  <name>  (155) 
Car Nac Nd0 Car Nac Nac Cs3 Car Car Car Car Car Car .=O

>  <indices>  (155) 
[0, 1, 2]

>  <tasks>  (155) 
probe_placing close_aromatic_ring close_aromatic_ring close_aromatic_ring ring_built build_to_Nac build_to_Nd0 close_aromatic_ring close_aromatic_ring close_aromatic_ring close_aromatic_ring close_aromatic_ring

>  <prot_clashes>  (155) 
3

>  <NBS phar>  (155) 
0.1

>  <NBS_non-phar>  (155) 
0.42624051230294363

>  <NBS>  (155) 
0.5262405123029437

>  <source_stage>  (155) 
scored

>  <source_iter>  (155) 
11

>  <source_parent_mol>  (155) 
0

>  <source_scenario>  (155) 
1 2 3 1 0 2 0 1 2 2 0

>  <source_rank_in_scored_call>  (155) 
33

>  <source_current_task>  (155) 
build_orthosubstituent_to_rotated_aniline_Nd0

>  <scenario>  (155) 
1 2 3 1 0 2 0 1 2 2

>  <protected_ring_attachments>  (155) 
3,1,0,2|1,0,2;4,5,0,2|5,0,2;9,8,7,2|8,7,2;11,12,7,2|12,7,2

>  <current_task>  (155) 
no_task

>  <rotatable_bond_torsions>  (155) 
1,0,2,7;0,2,7,8

>  <rotated_aniline_Nd0_dihedral>  (155) 
119.94

>  <rotated_aniline_Nd0_tolerance>  (155) 
60.0

>  <rotated_aniline_Nd0_context>  (155) 
diarylamine

>  <rotated_aniline_Nd0_substituent_idx>  (155) 
0

>  <rotated_aniline_Nd0_ring>  (155) 
8 9 10 11 12 7

>  <flag ortho>  (155) 


$$$$

     RDKit          3D

 15 16  0  0  0  0  0  0  0  0999 V2000
  -27.5380   -7.0470  -30.8730 C   0  0  0  0  0  0  0  0  0  0  0  0
  -27.3130   -6.5880  -32.1380 N   0  0  0  0  0  0  0  0  0  0  0  0
  -26.9770   -8.3700  -30.4310 N   0  0  0  0  0  0  0  0  0  0  0  0
  -27.8880   -5.3810  -32.2610 C   0  0  0  0  0  0  0  0  0  0  0  0
  -28.4670   -5.1020  -31.0610 N   0  0  0  0  0  0  0  0  0  0  0  0
  -28.2540   -6.1060  -30.2310 N   0  0  0  0  0  0  0  0  0  0  0  0
  -28.4170   -6.2870  -28.7640 C   0  0  0  0  0  0  0  0  0  0  0  0
  -27.9760   -9.5740  -30.3120 C   0  0  0  0  0  0  0  0  0  0  0  0
  -28.0630  -10.1180  -29.0480 C   0  0  0  0  0  0  0  0  0  0  0  0
  -28.9790  -11.1460  -28.8290 C   0  0  0  0  0  0  0  0  0  0  0  0
  -29.7810  -11.5990  -29.8790 C   0  0  0  0  0  0  0  0  0  0  0  0
  -29.6680  -11.0270  -31.1440 C   0  0  0  0  0  0  0  0  0  0  0  0
  -28.7520   -9.9950  -31.3740 C   0  0  0  0  0  0  0  0  0  0  0  0
  -27.2640   -9.6590  -28.0280 O   0  0  0  0  0  0  0  0  0  0  0  0
  -29.1030  -11.7670  -27.4600 C   0  0  0  0  0  0  0  0  0  0  0  0
  1  2  2  0
  1  3  1  0
  1  6  1  0
  2  4  1  0
  3  8  1  0
  4  5  2  0
  5  6  1  0
  6  7  1  0
  8 13  1  0
  8  9  2  0
  9 10  1  0
  9 14  1  0
 10 11  2  0
 10 15  1  0
 11 12  1  0
 12 13  2  0
M  CHG  1  14  -1
M  END
>  <name>  (156) 
Car Nac Nd0 Car Nac Nac Cs3 Car Car Car Car Car Car .=O Cs3

>  <indices>  (156) 
[0, 1, 2]

>  <tasks>  (156) 
probe_placing close_aromatic_ring close_aromatic_ring close_aromatic_ring ring_built build_to_Nac build_to_Nd0 close_aromatic_ring close_aromatic_ring close_aromatic_ring close_aromatic_ring close_aromatic_ring build_orthosubstituent_to_rotated_aniline_Nd0

>  <prot_clashes>  (156) 
2

>  <NBS phar>  (156) 
0.24

>  <NBS_non-phar>  (156) 
0.6333715438842773

>  <NBS>  (156) 
0.8733715438842773

>  <source_stage>  (156) 
scored

>  <source_iter>  (156) 
12

>  <source_parent_mol>  (156) 
0

>  <source_scenario>  (156) 
1 2 3 1 0 2 0 1 2 2 0 0

>  <source_rank_in_scored_call>  (156) 
6

>  <source_current_task>  (156) 
no_task

>  <scenario>  (156) 
1 2 3 1 0 2 0 1 2 2 0

>  <protected_ring_attachments>  (156) 
3,1,0,2|1,0,2;4,5,0,2|5,0,2;9,8,7,2|8,7,2;11,12,7,2|12,7,2

>  <current_task>  (156) 
no_task

>  <rotatable_bond_torsions>  (156) 
1,0,2,7;0,2,7,8

>  <rotated_aniline_Nd0_dihedral>  (156) 
119.94

>  <rotated_aniline_Nd0_tolerance>  (156) 
60.0

>  <rotated_aniline_Nd0_context>  (156) 
diarylamine

>  <rotated_aniline_Nd0_substituent_idx>  (156) 
0

>  <rotated_aniline_Nd0_ring>  (156) 
8 9 10 11 12 7

>  <flag ortho>  (156) 


$$$$

     RDKit          3D

 15 16  0  0  0  0  0  0  0  0999 V2000
  -27.5830   -6.9930  -30.7800 C   0  0  0  0  0  0  0  0  0  0  0  0
  -27.6690   -6.8510  -32.1340 N   0  0  0  0  0  0  0  0  0  0  0  0
  -26.8780   -8.1780  -30.1820 N   0  0  0  0  0  0  0  0  0  0  0  0
  -28.3110   -5.7020  -32.4020 C   0  0  0  0  0  0  0  0  0  0  0  0
  -28.6190   -5.1410  -31.2000 N   0  0  0  0  0  0  0  0  0  0  0  0
  -28.1800   -5.9200  -30.2300 N   0  0  0  0  0  0  0  0  0  0  0  0
  -28.0020   -5.7460  -28.7630 C   0  0  0  0  0  0  0  0  0  0  0  0
  -27.7680   -9.3100  -29.5600 C   0  0  0  0  0  0  0  0  0  0  0  0
  -27.5450   -9.5370  -28.2180 C   0  0  0  0  0  0  0  0  0  0  0  0
  -28.3400  -10.4750  -27.5620 C   0  0  0  0  0  0  0  0  0  0  0  0
  -29.3350  -11.1580  -28.2650 C   0  0  0  0  0  0  0  0  0  0  0  0
  -29.5350  -10.9040  -29.6200 C   0  0  0  0  0  0  0  0  0  0  0  0
  -28.7420   -9.9650  -30.2880 C   0  0  0  0  0  0  0  0  0  0  0  0
  -26.5590   -8.8560  -27.5440 O   0  0  0  0  0  0  0  0  0  0  0  0
  -28.9430   -9.6770  -31.7560 C   0  0  0  0  0  0  0  0  0  0  0  0
  1  2  2  0
  1  6  1  0
  1  3  1  0
  2  4  1  0
  3  8  1  0
  4  5  2  0
  5  6  1  0
  6  7  1  0
  8 13  1  0
  8  9  2  0
  9 10  1  0
  9 14  1  0
 10 11  2  0
 11 12  1  0
 12 13  2  0
 13 15  1  0
M  CHG  1  14  -1
M  END
>  <name>  (157) 
Car Nac Nd0 Car Nac Nac Cs3 Car Car Car Car Car Car .=O Cs3

>  <indices>  (157) 
[0, 1, 2]

>  <tasks>  (157) 
probe_placing close_aromatic_ring close_aromatic_ring close_aromatic_ring ring_built build_to_Nac build_to_Nd0 close_aromatic_ring close_aromatic_ring close_aromatic_ring close_aromatic_ring close_aromatic_ring build_orthosubstituent_to_rotated_aniline_Nd0

>  <prot_clashes>  (157) 
3

>  <NBS phar>  (157) 
0.22000000000000003

>  <NBS_non-phar>  (157) 
0.601849365234375

>  <NBS>  (157) 
0.821849365234375

>  <source_stage>  (157) 
scored

>  <source_iter>  (157) 
12

>  <source_parent_mol>  (157) 
0

>  <source_scenario>  (157) 
1 2 3 1 0 2 0 1 2 2 0 0

>  <source_rank_in_scored_call>  (157) 
28

>  <source_current_task>  (157) 
no_task

>  <scenario>  (157) 
1 2 3 1 0 2 0 1 2 2 0

>  <protected_ring_attachments>  (157) 
3,1,0,2|1,0,2;4,5,0,2|5,0,2;9,8,7,2|8,7,2;11,12,7,2|12,7,2

>  <current_task>  (157) 
no_task

>  <rotatable_bond_torsions>  (157) 
1,0,2,7;0,2,7,8

>  <rotated_aniline_Nd0_dihedral>  (157) 
119.94

>  <rotated_aniline_Nd0_tolerance>  (157) 
60.0

>  <rotated_aniline_Nd0_context>  (157) 
diarylamine

>  <rotated_aniline_Nd0_substituent_idx>  (157) 
0

>  <rotated_aniline_Nd0_ring>  (157) 
8 9 10 11 12 7

>  <flag ortho>  (157) 


$$$$

     RDKit          3D

 15 16  0  0  0  0  0  0  0  0999 V2000
  -27.5280   -7.0430  -30.8710 C   0  0  0  0  0  0  0  0  0  0  0  0
  -27.3150   -6.6070  -32.1460 N   0  0  0  0  0  0  0  0  0  0  0  0
  -26.9760   -8.3660  -30.4160 N   0  0  0  0  0  0  0  0  0  0  0  0
  -27.8780   -5.3950  -32.2810 C   0  0  0  0  0  0  0  0  0  0  0  0
  -28.4390   -5.0920  -31.0780 N   0  0  0  0  0  0  0  0  0  0  0  0
  -28.2260   -6.0850  -30.2350 N   0  0  0  0  0  0  0  0  0  0  0  0
  -28.3730   -6.2420  -28.7630 C   0  0  0  0  0  0  0  0  0  0  0  0
  -27.9860   -9.5560  -30.2660 C   0  0  0  0  0  0  0  0  0  0  0  0
  -28.0630  -10.0800  -28.9930 C   0  0  0  0  0  0  0  0  0  0  0  0
  -28.9870  -11.0940  -28.7460 C   0  0  0  0  0  0  0  0  0  0  0  0
  -29.8070  -11.5550  -29.7780 C   0  0  0  0  0  0  0  0  0  0  0  0
  -29.7050  -11.0030  -31.0530 C   0  0  0  0  0  0  0  0  0  0  0  0
  -28.7800   -9.9850  -31.3110 C   0  0  0  0  0  0  0  0  0  0  0  0
  -27.2460   -9.6140  -27.9900 O   0  0  0  0  0  0  0  0  0  0  0  0
  -30.8060  -12.6530  -29.5120 C   0  0  0  0  0  0  0  0  0  0  0  0
  1  2  2  0
  1  3  1  0
  1  6  1  0
  2  4  1  0
  3  8  1  0
  4  5  2  0
  5  6  1  0
  6  7  1  0
  8 13  1  0
  8  9  2  0
  9 10  1  0
  9 14  1  0
 10 11  2  0
 11 12  1  0
 11 15  1  0
 12 13  2  0
M  CHG  1  14  -1
M  END
>  <name>  (158) 
Car Nac Nd0 Car Nac Nac Cs3 Car Car Car Car Car Car .=O Cs3

>  <indices>  (158) 
[0, 1, 2]

>  <tasks>  (158) 
probe_placing close_aromatic_ring close_aromatic_ring close_aromatic_ring ring_built build_to_Nac build_to_Nd0 close_aromatic_ring close_aromatic_ring close_aromatic_ring close_aromatic_ring close_aromatic_ring build_orthosubstituent_to_rotated_aniline_Nd0

>  <prot_clashes>  (158) 
4

>  <NBS phar>  (158) 
0.22000000000000003

>  <NBS_non-phar>  (158) 
0.573963737487793

>  <NBS>  (158) 
0.793963737487793

>  <source_stage>  (158) 
scored

>  <source_iter>  (158) 
12

>  <source_parent_mol>  (158) 
0

>  <source_scenario>  (158) 
1 2 3 1 0 2 0 1 2 2 0 0

>  <source_rank_in_scored_call>  (158) 
40

>  <source_current_task>  (158) 
no_task

>  <scenario>  (158) 
1 2 3 1 0 2 0 1 2 2 0

>  <protected_ring_attachments>  (158) 
3,1,0,2|1,0,2;4,5,0,2|5,0,2;9,8,7,2|8,7,2;11,12,7,2|12,7,2

>  <current_task>  (158) 
no_task

>  <rotatable_bond_torsions>  (158) 
1,0,2,7;0,2,7,8

>  <rotated_aniline_Nd0_dihedral>  (158) 
119.94

>  <rotated_aniline_Nd0_tolerance>  (158) 
60.0

>  <rotated_aniline_Nd0_context>  (158) 
diarylamine

>  <rotated_aniline_Nd0_substituent_idx>  (158) 
0

>  <rotated_aniline_Nd0_ring>  (158) 
8 9 10 11 12 7

>  <flag ortho>  (158) 


$$$$

     RDKit          3D

 15 16  0  0  0  0  0  0  0  0999 V2000
  -27.5980   -6.9950  -30.7620 C   0  0  0  0  0  0  0  0  0  0  0  0
  -27.6760   -6.9820  -32.1230 N   0  0  0  0  0  0  0  0  0  0  0  0
  -26.8670   -8.1000  -30.0510 N   0  0  0  0  0  0  0  0  0  0  0  0
  -28.3460   -5.8810  -32.5010 C   0  0  0  0  0  0  0  0  0  0  0  0
  -28.6790   -5.2190  -31.3590 N   0  0  0  0  0  0  0  0  0  0  0  0
  -28.2280   -5.8920  -30.3170 N   0  0  0  0  0  0  0  0  0  0  0  0
  -28.0680   -5.5780  -28.8730 C   0  0  0  0  0  0  0  0  0  0  0  0
  -27.7330   -9.1930  -29.3320 C   0  0  0  0  0  0  0  0  0  0  0  0
  -27.5160   -9.2880  -27.9730 C   0  0  0  0  0  0  0  0  0  0  0  0
  -28.2910  -10.1820  -27.2370 C   0  0  0  0  0  0  0  0  0  0  0  0
  -29.2620  -10.9540  -27.8800 C   0  0  0  0  0  0  0  0  0  0  0  0
  -29.4570  -10.8330  -29.2540 C   0  0  0  0  0  0  0  0  0  0  0  0
  -28.6830   -9.9390  -30.0020 C   0  0  0  0  0  0  0  0  0  0  0  0
  -26.5550   -8.5210  -27.3590 O   0  0  0  0  0  0  0  0  0  0  0  0
  -30.5080  -11.6700  -29.9400 C   0  0  0  0  0  0  0  0  0  0  0  0
  1  2  2  0
  1  6  1  0
  1  3  1  0
  2  4  1  0
  3  8  1  0
  4  5  2  0
  5  6  1  0
  6  7  1  0
  8 13  1  0
  8  9  2  0
  9 14  1  0
  9 10  1  0
 10 11  2  0
 11 12  1  0
 12 13  2  0
 12 15  1  0
M  CHG  1  14  -1
M  END
>  <name>  (159) 
Car Nac Nd0 Car Nac Nac Cs3 Car Car Car Car Car Car .=O Cs3

>  <indices>  (159) 
[0, 1, 2]

>  <tasks>  (159) 
probe_placing close_aromatic_ring close_aromatic_ring close_aromatic_ring ring_built build_to_Nac build_to_Nd0 close_aromatic_ring close_aromatic_ring close_aromatic_ring close_aromatic_ring close_aromatic_ring build_orthosubstituent_to_rotated_aniline_Nd0

>  <prot_clashes>  (159) 
3

>  <NBS phar>  (159) 
0.12

>  <NBS_non-phar>  (159) 
0.5133429845174153

>  <NBS>  (159) 
0.6333429845174153

>  <source_stage>  (159) 
scored

>  <source_iter>  (159) 
12

>  <source_parent_mol>  (159) 
0

>  <source_scenario>  (159) 
1 2 3 1 0 2 0 1 2 2 0 0

>  <source_rank_in_scored_call>  (159) 
59

>  <source_current_task>  (159) 
no_task

>  <scenario>  (159) 
1 2 3 1 0 2 0 1 2 2 0

>  <protected_ring_attachments>  (159) 
3,1,0,2|1,0,2;4,5,0,2|5,0,2;9,8,7,2|8,7,2;11,12,7,2|12,7,2

>  <current_task>  (159) 
no_task

>  <rotatable_bond_torsions>  (159) 
1,0,2,7;0,2,7,8

>  <rotated_aniline_Nd0_dihedral>  (159) 
119.94

>  <rotated_aniline_Nd0_tolerance>  (159) 
60.0

>  <rotated_aniline_Nd0_context>  (159) 
diarylamine

>  <rotated_aniline_Nd0_substituent_idx>  (159) 
0

>  <rotated_aniline_Nd0_ring>  (159) 
8 9 10 11 12 7

>  <flag ortho>  (159) 


$$$$

     RDKit          3D

 16 17  0  0  0  0  0  0  0  0999 V2000
  -27.6940   -6.9830  -30.7160 C   0  0  0  0  0  0  0  0  0  0  0  0
  -27.1800   -6.5400  -31.8990 N   0  0  0  0  0  0  0  0  0  0  0  0
  -27.2100   -8.2710  -30.1080 N   0  0  0  0  0  0  0  0  0  0  0  0
  -27.7540   -5.3650  -32.1990 C   0  0  0  0  0  0  0  0  0  0  0  0
  -28.6240   -5.0890  -31.1910 N   0  0  0  0  0  0  0  0  0  0  0  0
  -28.5850   -6.0630  -30.3010 N   0  0  0  0  0  0  0  0  0  0  0  0
  -29.1020   -6.2210  -28.9160 C   0  0  0  0  0  0  0  0  0  0  0  0
  -28.1590   -9.5160  -30.2020 C   0  0  0  0  0  0  0  0  0  0  0  0
  -28.5370  -10.0370  -28.9820 C   0  0  0  0  0  0  0  0  0  0  0  0
  -29.4360  -11.1010  -28.9640 C   0  0  0  0  0  0  0  0  0  0  0  0
  -29.9320  -11.6130  -30.1660 C   0  0  0  0  0  0  0  0  0  0  0  0
  -29.5300  -11.0620  -31.3810 C   0  0  0  0  0  0  0  0  0  0  0  0
  -28.6270   -9.9940  -31.4090 C   0  0  0  0  0  0  0  0  0  0  0  0
  -28.0170   -9.5010  -27.7680 C   0  0  0  0  0  0  0  0  0  0  0  0
  -27.5800   -9.0490  -26.7450 C   0  0  0  0  0  0  0  0  0  0  0  0
  -27.0450   -8.4950  -25.4910 C   0  0  0  0  0  0  0  0  0  0  0  0
  8 13  1  0
  8  3  1  0
  8  9  2  0
  9 10  1  0
  9 14  1  0
 10 11  2  0
 11 12  1  0
 12 13  2  0
  1  2  2  0
  1  6  1  0
  1  3  1  0
  2  4  1  0
  4  5  2  0
  5  6  1  0
  6  7  1  0
 14 15  3  0
 15 16  1  0
M  END
>  <name>  (160) 
Car Nac Nd0 Car Nac Nac Cs3 Car Car Car Car Car Car Csp Csp Cs3

>  <indices>  (160) 
[0, 1, 2]

>  <tasks>  (160) 
probe_placing close_aromatic_ring close_aromatic_ring close_aromatic_ring ring_built build_to_Nac build_to_Nd0 close_aromatic_ring close_aromatic_ring close_aromatic_ring close_aromatic_ring close_aromatic_ring build_orthosubstituent_to_rotated_aniline_Nd0 build_to_Csp

>  <prot_clashes>  (160) 
7

>  <NBS phar>  (160) 
0.12

>  <NBS_non-phar>  (160) 
0.6391382217407227

>  <NBS>  (160) 
0.7591382217407227

>  <source_stage>  (160) 
scored

>  <source_iter>  (160) 
13

>  <source_parent_mol>  (160) 
0

>  <source_scenario>  (160) 
1 2 3 1 0 2 0 1 2 2 0 3 0

>  <source_rank_in_scored_call>  (160) 
1

>  <source_current_task>  (160) 
build_to_terminal_Csp

>  <scenario>  (160) 
1 2 3 1 0 2 0 1 2 2 0 3

>  <protected_ring_attachments>  (160) 
3,1,0,2|1,0,2;4,5,0,2|5,0,2;9,8,7,2|8,7,2;11,12,7,2|12,7,2

>  <current_task>  (160) 
no_task

>  <rotatable_bond_torsions>  (160) 
1,0,2,7;0,2,7,8;7,8,13,14

>  <rotated_aniline_Nd0_dihedral>  (160) 
119.94

>  <rotated_aniline_Nd0_tolerance>  (160) 
60.0

>  <rotated_aniline_Nd0_context>  (160) 
diarylamine

>  <rotated_aniline_Nd0_substituent_idx>  (160) 
0

>  <rotated_aniline_Nd0_ring>  (160) 
8 9 10 11 12 7

>  <flag ortho>  (160) 


$$$$

     RDKit          3D

 13 14  0  0  0  0  0  0  0  0999 V2000
  -27.8420   -7.4960  -31.2310 C   0  0  0  0  0  0  0  0  0  0  0  0
  -28.0630   -6.9830  -32.4750 N   0  0  0  0  0  0  0  0  0  0  0  0
  -27.3790   -8.9160  -31.0650 N   0  0  0  0  0  0  0  0  0  0  0  0
  -28.4340   -5.6970  -32.3470 C   0  0  0  0  0  0  0  0  0  0  0  0
  -28.4390   -5.4260  -31.0110 N   0  0  0  0  0  0  0  0  0  0  0  0
  -28.0830   -6.5100  -30.3460 N   0  0  0  0  0  0  0  0  0  0  0  0
  -27.6820   -6.7760  -28.9400 C   0  0  0  0  0  0  0  0  0  0  0  0
  -28.3670   -9.9330  -30.5650 C   0  0  0  0  0  0  0  0  0  0  0  0
  -28.0370  -11.2500  -30.8620 C   0  0  0  0  0  0  0  0  0  0  0  0
  -28.9320  -12.2420  -30.5120 C   0  0  0  0  0  0  0  0  0  0  0  0
  -30.1290  -12.0050  -29.8880 C   0  0  0  0  0  0  0  0  0  0  0  0
  -30.4600  -10.6820  -29.5890 C   0  0  0  0  0  0  0  0  0  0  0  0
  -29.5630   -9.6900  -29.9390 C   0  0  0  0  0  0  0  0  0  0  0  0
  1  2  2  0
  1  3  1  0
  1  6  1  0
  2  4  1  0
  3  8  1  0
  4  5  2  0
  5  6  1  0
  6  7  1  0
  8  9  2  0
  8 13  1  0
  9 10  1  0
 10 11  2  0
 11 12  1  0
 12 13  2  0
M  END
>  <name>  (161) 
Car Nac Nd0 Car Nac Nac Cs3 Car Car Car Car Car Car

>  <indices>  (161) 
[0, 1, 2]

>  <tasks>  (161) 
probe_placing close_aromatic_ring close_aromatic_ring close_aromatic_ring ring_built build_to_Nac build_to_Nd0 close_aromatic_ring close_aromatic_ring close_aromatic_ring close_aromatic_ring

>  <prot_clashes>  (161) 
4

>  <NBS phar>  (161) 
0.24000000000000005

>  <NBS_non-phar>  (161) 
0.5622686239389273

>  <NBS>  (161) 
0.8022686239389274

>  <source_stage>  (161) 
scored

>  <source_iter>  (161) 
10

>  <source_parent_mol>  (161) 
0

>  <source_scenario>  (161) 
1 2 3 1 0 2 1 1 2 0

>  <source_rank_in_scored_call>  (161) 
0

>  <source_current_task>  (161) 
close_aromatic_ring

>  <scenario>  (161) 
1 2 3 1 0 2 1 1 2

>  <protected_ring_attachments>  (161) 
3,1,0,2|1,0,2;4,5,0,2|5,0,2

>  <current_task>  (161) 
no_task

>  <rotatable_bond_torsions>  (161) 
1,0,2,7;0,2,7,8;2,7,8,9;8,9,10,11

$$$$

     RDKit          3D

 14 15  0  0  0  0  0  0  0  0999 V2000
  -27.8070   -7.5290  -31.3670 C   0  0  0  0  0  0  0  0  0  0  0  0
  -28.0630   -7.0100  -32.6020 N   0  0  0  0  0  0  0  0  0  0  0  0
  -27.3660   -8.9580  -31.2190 N   0  0  0  0  0  0  0  0  0  0  0  0
  -28.4040   -5.7170  -32.4600 C   0  0  0  0  0  0  0  0  0  0  0  0
  -28.3550   -5.4480  -31.1250 N   0  0  0  0  0  0  0  0  0  0  0  0
  -27.9960   -6.5390  -30.4740 N   0  0  0  0  0  0  0  0  0  0  0  0
  -27.5490   -6.8140  -29.0830 C   0  0  0  0  0  0  0  0  0  0  0  0
  -28.3550   -9.9560  -30.6830 C   0  0  0  0  0  0  0  0  0  0  0  0
  -28.0620  -11.2790  -30.9920 C   0  0  0  0  0  0  0  0  0  0  0  0
  -28.9630  -12.2530  -30.6100 C   0  0  0  0  0  0  0  0  0  0  0  0
  -30.1310  -11.9930  -29.9430 C   0  0  0  0  0  0  0  0  0  0  0  0
  -30.4250  -10.6650  -29.6320 C   0  0  0  0  0  0  0  0  0  0  0  0
  -29.5220   -9.6900  -30.0140 C   0  0  0  0  0  0  0  0  0  0  0  0
  -28.8170   -6.6870  -28.1870 C   0  0  0  0  0  0  0  0  0  0  0  0
  1  2  2  0
  1  3  1  0
  1  6  1  0
  2  4  1  0
  3  8  1  0
  4  5  2  0
  5  6  1  0
  6  7  1  0
  8  9  2  0
  8 13  1  0
  9 10  1  0
 10 11  2  0
 11 12  1  0
 12 13  2  0
  7 14  1  0
M  END
>  <name>  (162) 
Car Nac Nd0 Car Nac Nac Cs3 Car Car Car Car Car Car Cs3

>  <indices>  (162) 
[0, 1, 2]

>  <tasks>  (162) 
probe_placing close_aromatic_ring close_aromatic_ring close_aromatic_ring ring_built build_to_Nac build_to_Nd0 close_aromatic_ring close_aromatic_ring close_aromatic_ring close_aromatic_ring close_aromatic_ring

>  <prot_clashes>  (162) 
7

>  <NBS phar>  (162) 
0.26000000000000006

>  <NBS_non-phar>  (162) 
0.5806997844151088

>  <NBS>  (162) 
0.840699784415109

>  <source_stage>  (162) 
scored

>  <source_iter>  (162) 
11

>  <source_parent_mol>  (162) 
0

>  <source_scenario>  (162) 
1 2 3 1 0 2 1 1 2 0 0

>  <source_rank_in_scored_call>  (162) 
4

>  <source_current_task>  (162) 
no_task

>  <scenario>  (162) 
1 2 3 1 0 2 1 1 2 0

>  <protected_ring_attachments>  (162) 
3,1,0,2|1,0,2;4,5,0,2|5,0,2;9,8,7,2|8,7,2;11,12,7,2|12,7,2

>  <current_task>  (162) 
no_task

>  <rotatable_bond_torsions>  (162) 
1,0,2,7;0,2,7,8

$$$$

     RDKit          3D

 14 15  0  0  0  0  0  0  0  0999 V2000
  -27.8420   -7.4960  -31.2310 C   0  0  0  0  0  0  0  0  0  0  0  0
  -28.0630   -6.9830  -32.4750 N   0  0  0  0  0  0  0  0  0  0  0  0
  -27.3790   -8.9160  -31.0650 N   0  0  0  0  0  0  0  0  0  0  0  0
  -28.4340   -5.6970  -32.3470 C   0  0  0  0  0  0  0  0  0  0  0  0
  -28.4390   -5.4260  -31.0110 N   0  0  0  0  0  0  0  0  0  0  0  0
  -28.0830   -6.5100  -30.3460 N   0  0  0  0  0  0  0  0  0  0  0  0
  -27.6820   -6.7760  -28.9400 C   0  0  0  0  0  0  0  0  0  0  0  0
  -28.3670   -9.9330  -30.5650 C   0  0  0  0  0  0  0  0  0  0  0  0
  -28.0380  -11.2500  -30.8620 C   0  0  0  0  0  0  0  0  0  0  0  0
  -28.9330  -12.2420  -30.5120 C   0  0  0  0  0  0  0  0  0  0  0  0
  -30.1300  -12.0050  -29.8880 C   0  0  0  0  0  0  0  0  0  0  0  0
  -30.4600  -10.6820  -29.5890 C   0  0  0  0  0  0  0  0  0  0  0  0
  -29.5630   -9.6900  -29.9390 C   0  0  0  0  0  0  0  0  0  0  0  0
  -28.5720  -13.6710  -30.8360 C   0  0  0  0  0  0  0  0  0  0  0  0
  1  2  2  0
  1  3  1  0
  1  6  1  0
  2  4  1  0
  3  8  1  0
  4  5  2  0
  5  6  1  0
  6  7  1  0
  8  9  2  0
  8 13  1  0
  9 10  1  0
 10 14  1  0
 10 11  2  0
 11 12  1  0
 12 13  2  0
M  END
>  <name>  (163) 
Car Nac Nd0 Car Nac Nac Cs3 Car Car Car Car Car Car Cs3

>  <indices>  (163) 
[0, 1, 2]

>  <tasks>  (163) 
probe_placing close_aromatic_ring close_aromatic_ring close_aromatic_ring ring_built build_to_Nac build_to_Nd0 close_aromatic_ring close_aromatic_ring close_aromatic_ring close_aromatic_ring close_aromatic_ring

>  <prot_clashes>  (163) 
4

>  <NBS phar>  (163) 
0.24000000000000005

>  <NBS_non-phar>  (163) 
0.5824953487941197

>  <NBS>  (163) 
0.8224953487941198

>  <source_stage>  (163) 
scored

>  <source_iter>  (163) 
11

>  <source_parent_mol>  (163) 
0

>  <source_scenario>  (163) 
1 2 3 1 0 2 1 1 2 0 0

>  <source_rank_in_scored_call>  (163) 
16

>  <source_current_task>  (163) 
no_task

>  <scenario>  (163) 
1 2 3 1 0 2 1 1 2 0

>  <protected_ring_attachments>  (163) 
3,1,0,2|1,0,2;4,5,0,2|5,0,2;9,8,7,2|8,7,2;11,12,7,2|12,7,2

>  <current_task>  (163) 
no_task

>  <rotatable_bond_torsions>  (163) 
1,0,2,7;0,2,7,8

$$$$

     RDKit          3D

 14 15  0  0  0  0  0  0  0  0999 V2000
  -27.7360   -7.6220  -31.3570 C   0  0  0  0  0  0  0  0  0  0  0  0
  -28.0640   -6.9730  -32.5110 N   0  0  0  0  0  0  0  0  0  0  0  0
  -27.3140   -9.0640  -31.3880 N   0  0  0  0  0  0  0  0  0  0  0  0
  -28.3700   -5.6990  -32.2120 C   0  0  0  0  0  0  0  0  0  0  0  0
  -28.2260   -5.5710  -30.8620 N   0  0  0  0  0  0  0  0  0  0  0  0
  -27.8460   -6.7290  -30.3540 N   0  0  0  0  0  0  0  0  0  0  0  0
  -27.3130   -7.1550  -29.0340 C   0  0  0  0  0  0  0  0  0  0  0  0
  -28.2840  -10.1000  -30.8930 C   0  0  0  0  0  0  0  0  0  0  0  0
  -28.0380  -11.3870  -31.3580 C   0  0  0  0  0  0  0  0  0  0  0  0
  -28.9300  -12.3850  -31.0180 C   0  0  0  0  0  0  0  0  0  0  0  0
  -30.0470  -12.1830  -30.2490 C   0  0  0  0  0  0  0  0  0  0  0  0
  -30.2930  -10.8900  -29.7820 C   0  0  0  0  0  0  0  0  0  0  0  0
  -29.3990   -9.8920  -30.1220 C   0  0  0  0  0  0  0  0  0  0  0  0
  -28.4960   -7.5340  -28.1320 C   0  0  0  0  0  0  0  0  0  0  0  0
  1  2  2  0
  1  3  1  0
  1  6  1  0
  2  4  1  0
  3  8  1  0
  4  5  2  0
  5  6  1  0
  6  7  1  0
  8  9  2  0
  8 13  1  0
  9 10  1  0
 10 11  2  0
 11 12  1  0
 12 13  2  0
  7 14  1  0
M  END
>  <name>  (164) 
Car Nac Nd0 Car Nac Nac Cs3 Car Car Car Car Car Car Cs3

>  <indices>  (164) 
[0, 1, 2]

>  <tasks>  (164) 
probe_placing close_aromatic_ring close_aromatic_ring close_aromatic_ring ring_built build_to_Nac build_to_Nd0 close_aromatic_ring close_aromatic_ring close_aromatic_ring close_aromatic_ring close_aromatic_ring

>  <prot_clashes>  (164) 
5

>  <NBS phar>  (164) 
0.22000000000000003

>  <NBS_non-phar>  (164) 
0.5930020468575614

>  <NBS>  (164) 
0.8130020468575614

>  <source_stage>  (164) 
scored

>  <source_iter>  (164) 
11

>  <source_parent_mol>  (164) 
0

>  <source_scenario>  (164) 
1 2 3 1 0 2 1 1 2 0 0

>  <source_rank_in_scored_call>  (164) 
27

>  <source_current_task>  (164) 
no_task

>  <scenario>  (164) 
1 2 3 1 0 2 1 1 2 0

>  <protected_ring_attachments>  (164) 
3,1,0,2|1,0,2;4,5,0,2|5,0,2;9,8,7,2|8,7,2;11,12,7,2|12,7,2

>  <current_task>  (164) 
no_task

>  <rotatable_bond_torsions>  (164) 
1,0,2,7;0,2,7,8

$$$$

     RDKit          3D

 14 15  0  0  0  0  0  0  0  0999 V2000
  -27.7400   -7.5980  -31.3540 C   0  0  0  0  0  0  0  0  0  0  0  0
  -28.0710   -6.9570  -32.5110 N   0  0  0  0  0  0  0  0  0  0  0  0
  -27.3020   -9.0350  -31.3790 N   0  0  0  0  0  0  0  0  0  0  0  0
  -28.3920   -5.6840  -32.2180 C   0  0  0  0  0  0  0  0  0  0  0  0
  -28.2550   -5.5510  -30.8680 N   0  0  0  0  0  0  0  0  0  0  0  0
  -27.8630   -6.7030  -30.3550 N   0  0  0  0  0  0  0  0  0  0  0  0
  -27.3300   -7.1180  -29.0310 C   0  0  0  0  0  0  0  0  0  0  0  0
  -28.2620  -10.0810  -30.8840 C   0  0  0  0  0  0  0  0  0  0  0  0
  -28.0000  -11.3660  -31.3440 C   0  0  0  0  0  0  0  0  0  0  0  0
  -28.8820  -12.3730  -31.0040 C   0  0  0  0  0  0  0  0  0  0  0  0
  -30.0030  -12.1800  -30.2390 C   0  0  0  0  0  0  0  0  0  0  0  0
  -30.2650  -10.8890  -29.7770 C   0  0  0  0  0  0  0  0  0  0  0  0
  -29.3810   -9.8820  -30.1170 C   0  0  0  0  0  0  0  0  0  0  0  0
  -28.4930   -7.4490  -28.1360 C   0  0  0  0  0  0  0  0  0  0  0  0
  1  2  2  0
  1  3  1  0
  1  6  1  0
  2  4  1  0
  3  8  1  0
  4  5  2  0
  5  6  1  0
  6  7  1  0
  8  9  2  0
  8 13  1  0
  9 10  1  0
 10 11  2  0
 11 12  1  0
 12 13  2  0
  7 14  1  0
M  END
>  <name>  (165) 
Car Nac Nd0 Car Nac Nac Cs3 Car Car Car Car Car Car Cs3

>  <indices>  (165) 
[0, 1, 2]

>  <tasks>  (165) 
probe_placing close_aromatic_ring close_aromatic_ring close_aromatic_ring ring_built build_to_Nac build_to_Nd0 close_aromatic_ring close_aromatic_ring close_aromatic_ring close_aromatic_ring close_aromatic_ring

>  <prot_clashes>  (165) 
3

>  <NBS phar>  (165) 
0.22000000000000003

>  <NBS_non-phar>  (165) 
0.5921868596758161

>  <NBS>  (165) 
0.8121868596758162

>  <source_stage>  (165) 
scored

>  <source_iter>  (165) 
11

>  <source_parent_mol>  (165) 
0

>  <source_scenario>  (165) 
1 2 3 1 0 2 1 1 2 0 0

>  <source_rank_in_scored_call>  (165) 
28

>  <source_current_task>  (165) 
no_task

>  <scenario>  (165) 
1 2 3 1 0 2 1 1 2 0

>  <protected_ring_attachments>  (165) 
3,1,0,2|1,0,2;4,5,0,2|5,0,2;9,8,7,2|8,7,2;11,12,7,2|12,7,2

>  <current_task>  (165) 
no_task

>  <rotatable_bond_torsions>  (165) 
1,0,2,7;0,2,7,8

$$$$

     RDKit          3D

 14 15  0  0  0  0  0  0  0  0999 V2000
  -27.8430   -7.4910  -31.2260 C   0  0  0  0  0  0  0  0  0  0  0  0
  -28.0630   -6.9830  -32.4720 N   0  0  0  0  0  0  0  0  0  0  0  0
  -27.3790   -8.9100  -31.0540 N   0  0  0  0  0  0  0  0  0  0  0  0
  -28.4360   -5.6970  -32.3500 C   0  0  0  0  0  0  0  0  0  0  0  0
  -28.4430   -5.4210  -31.0150 N   0  0  0  0  0  0  0  0  0  0  0  0
  -28.0860   -6.5020  -30.3450 N   0  0  0  0  0  0  0  0  0  0  0  0
  -27.6870   -6.7620  -28.9380 C   0  0  0  0  0  0  0  0  0  0  0  0
  -28.3660   -9.9260  -30.5510 C   0  0  0  0  0  0  0  0  0  0  0  0
  -28.0340  -11.2440  -30.8430 C   0  0  0  0  0  0  0  0  0  0  0  0
  -28.9290  -12.2350  -30.4900 C   0  0  0  0  0  0  0  0  0  0  0  0
  -30.1270  -11.9970  -29.8690 C   0  0  0  0  0  0  0  0  0  0  0  0
  -30.4600  -10.6740  -29.5750 C   0  0  0  0  0  0  0  0  0  0  0  0
  -29.5630   -9.6820  -29.9280 C   0  0  0  0  0  0  0  0  0  0  0  0
  -31.0570  -13.1310  -29.5120 C   0  0  0  0  0  0  0  0  0  0  0  0
  1  2  2  0
  1  3  1  0
  1  6  1  0
  2  4  1  0
  3  8  1  0
  4  5  2  0
  5  6  1  0
  6  7  1  0
  8  9  2  0
  8 13  1  0
  9 10  1  0
 10 11  2  0
 11 12  1  0
 11 14  1  0
 12 13  2  0
M  END
>  <name>  (166) 
Car Nac Nd0 Car Nac Nac Cs3 Car Car Car Car Car Car Cs3

>  <indices>  (166) 
[0, 1, 2]

>  <tasks>  (166) 
probe_placing close_aromatic_ring close_aromatic_ring close_aromatic_ring ring_built build_to_Nac build_to_Nd0 close_aromatic_ring close_aromatic_ring close_aromatic_ring close_aromatic_ring close_aromatic_ring

>  <prot_clashes>  (166) 
7

>  <NBS phar>  (166) 
0.24000000000000005

>  <NBS_non-phar>  (166) 
0.5344633374895368

>  <NBS>  (166) 
0.7744633374895369

>  <source_stage>  (166) 
scored

>  <source_iter>  (166) 
11

>  <source_parent_mol>  (166) 
0

>  <source_scenario>  (166) 
1 2 3 1 0 2 1 1 2 0 0

>  <source_rank_in_scored_call>  (166) 
58

>  <source_current_task>  (166) 
no_task

>  <scenario>  (166) 
1 2 3 1 0 2 1 1 2 0

>  <protected_ring_attachments>  (166) 
3,1,0,2|1,0,2;4,5,0,2|5,0,2;9,8,7,2|8,7,2;11,12,7,2|12,7,2

>  <current_task>  (166) 
no_task

>  <rotatable_bond_torsions>  (166) 
1,0,2,7;0,2,7,8

$$$$

     RDKit          3D

 14 15  0  0  0  0  0  0  0  0999 V2000
  -27.7520   -7.6300  -31.2190 C   0  0  0  0  0  0  0  0  0  0  0  0
  -28.1600   -6.9090  -32.3030 N   0  0  0  0  0  0  0  0  0  0  0  0
  -27.2120   -9.0220  -31.3900 N   0  0  0  0  0  0  0  0  0  0  0  0
  -28.5630   -5.6970  -31.8830 C   0  0  0  0  0  0  0  0  0  0  0  0
  -28.3990   -5.6810  -30.5300 N   0  0  0  0  0  0  0  0  0  0  0  0
  -27.9120   -6.8440  -30.1370 N   0  0  0  0  0  0  0  0  0  0  0  0
  -27.3150   -7.3410  -28.8700 C   0  0  0  0  0  0  0  0  0  0  0  0
  -28.0810  -10.1780  -30.9780 C   0  0  0  0  0  0  0  0  0  0  0  0
  -27.7400  -11.3910  -31.5630 C   0  0  0  0  0  0  0  0  0  0  0  0
  -28.5370  -12.4880  -31.3030 C   0  0  0  0  0  0  0  0  0  0  0  0
  -29.6480  -12.4520  -30.5010 C   0  0  0  0  0  0  0  0  0  0  0  0
  -29.9900  -11.2330  -29.9130 C   0  0  0  0  0  0  0  0  0  0  0  0
  -29.1910  -10.1360  -30.1730 C   0  0  0  0  0  0  0  0  0  0  0  0
  -31.2000  -11.1160  -29.0180 C   0  0  0  0  0  0  0  0  0  0  0  0
  1  2  2  0
  1  3  1  0
  1  6  1  0
  2  4  1  0
  3  8  1  0
  4  5  2  0
  5  6  1  0
  6  7  1  0
  8  9  2  0
  8 13  1  0
  9 10  1  0
 10 11  2  0
 11 12  1  0
 12 13  2  0
 12 14  1  0
M  END
>  <name>  (167) 
Car Nac Nd0 Car Nac Nac Cs3 Car Car Car Car Car Car Cs3

>  <indices>  (167) 
[0, 1, 2]

>  <tasks>  (167) 
probe_placing close_aromatic_ring close_aromatic_ring close_aromatic_ring ring_built build_to_Nac build_to_Nd0 close_aromatic_ring close_aromatic_ring close_aromatic_ring close_aromatic_ring close_aromatic_ring

>  <prot_clashes>  (167) 
6

>  <NBS phar>  (167) 
0.24000000000000005

>  <NBS_non-phar>  (167) 
0.5268276759556362

>  <NBS>  (167) 
0.7668276759556363

>  <source_stage>  (167) 
scored

>  <source_iter>  (167) 
11

>  <source_parent_mol>  (167) 
0

>  <source_scenario>  (167) 
1 2 3 1 0 2 1 1 2 0 0

>  <source_rank_in_scored_call>  (167) 
64

>  <source_current_task>  (167) 
no_task

>  <scenario>  (167) 
1 2 3 1 0 2 1 1 2 0

>  <protected_ring_attachments>  (167) 
3,1,0,2|1,0,2;4,5,0,2|5,0,2;9,8,7,2|8,7,2;11,12,7,2|12,7,2

>  <current_task>  (167) 
no_task

>  <rotatable_bond_torsions>  (167) 
1,0,2,7;0,2,7,8

$$$$

     RDKit          3D

 14 15  0  0  0  0  0  0  0  0999 V2000
  -27.8520   -7.4810  -31.2220 C   0  0  0  0  0  0  0  0  0  0  0  0
  -27.9970   -7.0660  -32.5130 N   0  0  0  0  0  0  0  0  0  0  0  0
  -27.3360   -8.8600  -30.9190 N   0  0  0  0  0  0  0  0  0  0  0  0
  -28.4380   -5.7960  -32.5060 C   0  0  0  0  0  0  0  0  0  0  0  0
  -28.5640   -5.4360  -31.1970 N   0  0  0  0  0  0  0  0  0  0  0  0
  -28.2110   -6.4520  -30.4310 N   0  0  0  0  0  0  0  0  0  0  0  0
  -27.9120   -6.6000  -28.9830 C   0  0  0  0  0  0  0  0  0  0  0  0
  -28.3110   -9.8920  -30.4250 C   0  0  0  0  0  0  0  0  0  0  0  0
  -27.8950  -11.2060  -30.6000 C   0  0  0  0  0  0  0  0  0  0  0  0
  -28.7670  -12.2190  -30.2490 C   0  0  0  0  0  0  0  0  0  0  0  0
  -30.0200  -12.0050  -29.7380 C   0  0  0  0  0  0  0  0  0  0  0  0
  -30.4370  -10.6840  -29.5610 C   0  0  0  0  0  0  0  0  0  0  0  0
  -29.5640   -9.6720  -29.9110 C   0  0  0  0  0  0  0  0  0  0  0  0
  -27.6860   -5.1350  -28.4010 C   0  0  0  0  0  0  0  0  0  0  0  0
  1  2  2  0
  1  3  1  0
  1  6  1  0
  2  4  1  0
  3  8  1  0
  4  5  2  0
  5  6  1  0
  6  7  1  0
  8  9  2  0
  8 13  1  0
  9 10  1  0
 10 11  2  0
 11 12  1  0
 12 13  2  0
  7 14  1  0
M  END
>  <name>  (168) 
Car Nac Nd0 Car Nac Nac Cs3 Car Car Car Car Car Car Cs3

>  <indices>  (168) 
[0, 1, 2]

>  <tasks>  (168) 
probe_placing close_aromatic_ring close_aromatic_ring close_aromatic_ring ring_built build_to_Nac build_to_Nd0 close_aromatic_ring close_aromatic_ring close_aromatic_ring close_aromatic_ring close_aromatic_ring

>  <prot_clashes>  (168) 
12

>  <NBS phar>  (168) 
0.13999999999999999

>  <NBS_non-phar>  (168) 
0.5312086854662214

>  <NBS>  (168) 
0.6712086854662214

>  <source_stage>  (168) 
scored

>  <source_iter>  (168) 
11

>  <source_parent_mol>  (168) 
0

>  <source_scenario>  (168) 
1 2 3 1 0 2 1 1 2 0 0

>  <source_rank_in_scored_call>  (168) 
91

>  <source_current_task>  (168) 
no_task

>  <scenario>  (168) 
1 2 3 1 0 2 1 1 2 0

>  <protected_ring_attachments>  (168) 
3,1,0,2|1,0,2;4,5,0,2|5,0,2;9,8,7,2|8,7,2;11,12,7,2|12,7,2

>  <current_task>  (168) 
no_task

>  <rotatable_bond_torsions>  (168) 
1,0,2,7;0,2,7,8

$$$$

     RDKit          3D

 14 15  0  0  0  0  0  0  0  0999 V2000
  -27.9300   -7.0710  -30.8630 C   0  0  0  0  0  0  0  0  0  0  0  0
  -27.9310   -6.9790  -32.2240 N   0  0  0  0  0  0  0  0  0  0  0  0
  -27.3090   -8.2570  -30.1810 N   0  0  0  0  0  0  0  0  0  0  0  0
  -28.5120   -5.8180  -32.5730 C   0  0  0  0  0  0  0  0  0  0  0  0
  -28.8680   -5.1980  -31.4130 N   0  0  0  0  0  0  0  0  0  0  0  0
  -28.5160   -5.9550  -30.3890 N   0  0  0  0  0  0  0  0  0  0  0  0
  -28.4160   -5.7320  -28.9230 C   0  0  0  0  0  0  0  0  0  0  0  0
  -28.2200   -9.2850  -29.5700 C   0  0  0  0  0  0  0  0  0  0  0  0
  -27.6350  -10.5300  -29.3750 C   0  0  0  0  0  0  0  0  0  0  0  0
  -28.4270  -11.5550  -28.8950 C   0  0  0  0  0  0  0  0  0  0  0  0
  -29.7570  -11.4170  -28.5980 C   0  0  0  0  0  0  0  0  0  0  0  0
  -30.3450  -10.1660  -28.7920 C   0  0  0  0  0  0  0  0  0  0  0  0
  -29.5520   -9.1400  -29.2720 C   0  0  0  0  0  0  0  0  0  0  0  0
  -28.0550   -4.2130  -28.4560 C   0  0  0  0  0  0  0  0  0  0  0  0
  1  2  2  0
  1  6  1  0
  1  3  1  0
  2  4  1  0
  3  8  1  0
  4  5  2  0
  5  6  1  0
  6  7  1  0
  8  9  2  0
  8 13  1  0
  9 10  1  0
 10 11  2  0
 11 12  1  0
 12 13  2  0
  7 14  1  0
M  END
>  <name>  (169) 
Car Nac Nd0 Car Nac Nac Cs3 Car Car Car Car Car Car Cs3

>  <indices>  (169) 
[0, 1, 2]

>  <tasks>  (169) 
probe_placing close_aromatic_ring close_aromatic_ring close_aromatic_ring ring_built build_to_Nac build_to_Nd0 close_aromatic_ring close_aromatic_ring close_aromatic_ring close_aromatic_ring close_aromatic_ring

>  <prot_clashes>  (169) 
10

>  <NBS phar>  (169) 
0.1

>  <NBS_non-phar>  (169) 
0.4857372556413923

>  <NBS>  (169) 
0.5857372556413923

>  <source_stage>  (169) 
scored

>  <source_iter>  (169) 
11

>  <source_parent_mol>  (169) 
0

>  <source_scenario>  (169) 
1 2 3 1 0 2 1 1 2 0 0

>  <source_rank_in_scored_call>  (169) 
100

>  <source_current_task>  (169) 
no_task

>  <scenario>  (169) 
1 2 3 1 0 2 1 1 2 0

>  <protected_ring_attachments>  (169) 
3,1,0,2|1,0,2;4,5,0,2|5,0,2;9,8,7,2|8,7,2;11,12,7,2|12,7,2

>  <current_task>  (169) 
no_task

>  <rotatable_bond_torsions>  (169) 
1,0,2,7;0,2,7,8

$$$$

     RDKit          3D

 14 15  0  0  0  0  0  0  0  0999 V2000
  -27.9950   -7.8560  -31.0380 C   0  0  0  0  0  0  0  0  0  0  0  0
  -28.3420   -7.2270  -32.1980 N   0  0  0  0  0  0  0  0  0  0  0  0
  -27.7580   -9.3400  -31.0190 N   0  0  0  0  0  0  0  0  0  0  0  0
  -28.4600   -5.9110  -31.9510 C   0  0  0  0  0  0  0  0  0  0  0  0
  -28.1830   -5.7380  -30.6270 N   0  0  0  0  0  0  0  0  0  0  0  0
  -27.9050   -6.9100  -30.0850 N   0  0  0  0  0  0  0  0  0  0  0  0
  -27.3130   -7.3360  -28.7900 C   0  0  0  0  0  0  0  0  0  0  0  0
  -28.8010  -10.2190  -30.3860 C   0  0  0  0  0  0  0  0  0  0  0  0
  -28.7570  -11.5470  -30.7930 C   0  0  0  0  0  0  0  0  0  0  0  0
  -29.7310  -12.4060  -30.3230 C   0  0  0  0  0  0  0  0  0  0  0  0
  -30.7420  -12.0260  -29.4780 C   0  0  0  0  0  0  0  0  0  0  0  0
  -30.7850  -10.6920  -29.0690 C   0  0  0  0  0  0  0  0  0  0  0  0
  -29.8080   -9.8330  -29.5390 C   0  0  0  0  0  0  0  0  0  0  0  0
  -27.6740  -12.0380  -31.7220 C   0  0  0  0  0  0  0  0  0  0  0  0
  1  2  2  0
  1  3  1  0
  1  6  1  0
  2  4  1  0
  3  8  1  0
  4  5  2  0
  5  6  1  0
  6  7  1  0
  8  9  2  0
  8 13  1  0
  9 14  1  0
  9 10  1  0
 10 11  2  0
 11 12  1  0
 12 13  2  0
M  END
>  <name>  (170) 
Car Nac Nd0 Car Nac Nac Cs3 Car Car Car Car Car Car Cs3

>  <indices>  (170) 
[0, 1, 2]

>  <tasks>  (170) 
probe_placing close_aromatic_ring close_aromatic_ring close_aromatic_ring ring_built build_to_Nac build_to_Nd0 close_aromatic_ring close_aromatic_ring close_aromatic_ring close_aromatic_ring close_aromatic_ring

>  <prot_clashes>  (170) 
7

>  <NBS phar>  (170) 
0.06000000000000001

>  <NBS_non-phar>  (170) 
0.5251662390572684

>  <NBS>  (170) 
0.5851662390572685

>  <source_stage>  (170) 
scored

>  <source_iter>  (170) 
11

>  <source_parent_mol>  (170) 
0

>  <source_scenario>  (170) 
1 2 3 1 0 2 1 1 2 0 0

>  <source_rank_in_scored_call>  (170) 
102

>  <source_current_task>  (170) 
no_task

>  <scenario>  (170) 
1 2 3 1 0 2 1 1 2 0

>  <protected_ring_attachments>  (170) 
3,1,0,2|1,0,2;4,5,0,2|5,0,2;9,8,7,2|8,7,2;11,12,7,2|12,7,2

>  <current_task>  (170) 
no_task

>  <rotatable_bond_torsions>  (170) 
1,0,2,7;0,2,7,8

$$$$

     RDKit          3D

 15 16  0  0  0  0  0  0  0  0999 V2000
  -27.8390   -7.5070  -31.2460 C   0  0  0  0  0  0  0  0  0  0  0  0
  -28.0630   -6.9450  -32.4680 N   0  0  0  0  0  0  0  0  0  0  0  0
  -27.3810   -8.9350  -31.1390 N   0  0  0  0  0  0  0  0  0  0  0  0
  -28.4280   -5.6630  -32.2870 C   0  0  0  0  0  0  0  0  0  0  0  0
  -28.4260   -5.4460  -30.9410 N   0  0  0  0  0  0  0  0  0  0  0  0
  -28.0720   -6.5560  -30.3210 N   0  0  0  0  0  0  0  0  0  0  0  0
  -27.6660   -6.8800  -28.9290 C   0  0  0  0  0  0  0  0  0  0  0  0
  -28.3710   -9.9670  -30.6750 C   0  0  0  0  0  0  0  0  0  0  0  0
  -28.0480  -11.2720  -31.0260 C   0  0  0  0  0  0  0  0  0  0  0  0
  -28.9450  -12.2740  -30.7110 C   0  0  0  0  0  0  0  0  0  0  0  0
  -30.1390  -12.0570  -30.0730 C   0  0  0  0  0  0  0  0  0  0  0  0
  -30.4620  -10.7460  -29.7200 C   0  0  0  0  0  0  0  0  0  0  0  0
  -29.5630   -9.7450  -30.0350 C   0  0  0  0  0  0  0  0  0  0  0  0
  -30.9910  -13.1020  -29.7890 O   0  0  0  0  0  0  0  0  0  0  0  0
  -32.2150  -12.8710  -29.1380 C   0  0  0  0  0  0  0  0  0  0  0  0
  1  2  2  0
  1  3  1  0
  1  6  1  0
  2  4  1  0
  3  8  1  0
  4  5  2  0
  5  6  1  0
  6  7  1  0
  8  9  2  0
  8 13  1  0
  9 10  1  0
 10 11  2  0
 11 14  1  0
 11 12  1  0
 12 13  2  0
 14 15  1  0
M  END
>  <name>  (171) 
Car Nac Nd0 Car Nac Nac Cs3 Car Car Car Car Car Car O_a Cs3

>  <indices>  (171) 
[0, 1, 2]

>  <tasks>  (171) 
probe_placing close_aromatic_ring close_aromatic_ring close_aromatic_ring ring_built build_to_Nac build_to_Nd0 close_aromatic_ring close_aromatic_ring close_aromatic_ring close_aromatic_ring close_aromatic_ring no_task

>  <prot_clashes>  (171) 
3

>  <NBS phar>  (171) 
0.34

>  <NBS_non-phar>  (171) 
0.6137536366780599

>  <NBS>  (171) 
0.9537536366780599

>  <source_stage>  (171) 
scored

>  <source_iter>  (171) 
12

>  <source_parent_mol>  (171) 
1

>  <source_scenario>  (171) 
1 2 3 1 0 2 1 1 2 0 0 1

>  <source_rank_in_scored_call>  (171) 
5

>  <source_current_task>  (171) 
build_to_O_a

>  <scenario>  (171) 
1 2 3 1 0 2 1 1 2 0 0

>  <protected_ring_attachments>  (171) 
3,1,0,2|1,0,2;4,5,0,2|5,0,2;8,9,10,13|9,10,13;9,8,7,2|8,7,2;11,12,7,2|12,7,2;12,11,10,13|11,10,13

>  <current_task>  (171) 
no_task

>  <rotatable_bond_torsions>  (171) 
1,0,2,7;0,2,7,8

$$$$

     RDKit          3D

 15 16  0  0  0  0  0  0  0  0999 V2000
  -27.8420   -7.5050  -31.2460 C   0  0  0  0  0  0  0  0  0  0  0  0
  -28.0630   -6.9250  -32.4590 N   0  0  0  0  0  0  0  0  0  0  0  0
  -27.3790   -8.9330  -31.1580 N   0  0  0  0  0  0  0  0  0  0  0  0
  -28.4340   -5.6480  -32.2600 C   0  0  0  0  0  0  0  0  0  0  0  0
  -28.4380   -5.4510  -30.9110 N   0  0  0  0  0  0  0  0  0  0  0  0
  -28.0830   -6.5700  -30.3070 N   0  0  0  0  0  0  0  0  0  0  0  0
  -27.6820   -6.9130  -28.9180 C   0  0  0  0  0  0  0  0  0  0  0  0
  -28.3670   -9.9760  -30.7150 C   0  0  0  0  0  0  0  0  0  0  0  0
  -28.0370  -11.2740  -31.0840 C   0  0  0  0  0  0  0  0  0  0  0  0
  -28.9320  -12.2840  -30.7890 C   0  0  0  0  0  0  0  0  0  0  0  0
  -30.1290  -12.0820  -30.1520 C   0  0  0  0  0  0  0  0  0  0  0  0
  -30.4600  -10.7780  -29.7810 C   0  0  0  0  0  0  0  0  0  0  0  0
  -29.5630   -9.7680  -30.0760 C   0  0  0  0  0  0  0  0  0  0  0  0
  -30.9790  -13.1340  -29.8880 O   0  0  0  0  0  0  0  0  0  0  0  0
  -31.0010  -13.4250  -28.4960 C   0  0  0  0  0  0  0  0  0  0  0  0
  1  2  2  0
  1  3  1  0
  1  6  1  0
  2  4  1  0
  3  8  1  0
  4  5  2  0
  5  6  1  0
  6  7  1  0
  8  9  2  0
  8 13  1  0
  9 10  1  0
 10 11  2  0
 11 14  1  0
 11 12  1  0
 12 13  2  0
 14 15  1  0
M  END
>  <name>  (172) 
Car Nac Nd0 Car Nac Nac Cs3 Car Car Car Car Car Car O_a Cs3

>  <indices>  (172) 
[0, 1, 2]

>  <tasks>  (172) 
probe_placing close_aromatic_ring close_aromatic_ring close_aromatic_ring ring_built build_to_Nac build_to_Nd0 close_aromatic_ring close_aromatic_ring close_aromatic_ring close_aromatic_ring close_aromatic_ring no_task

>  <prot_clashes>  (172) 
3

>  <NBS phar>  (172) 
0.34

>  <NBS_non-phar>  (172) 
0.5588931401570638

>  <NBS>  (172) 
0.8988931401570639

>  <source_stage>  (172) 
scored

>  <source_iter>  (172) 
12

>  <source_parent_mol>  (172) 
1

>  <source_scenario>  (172) 
1 2 3 1 0 2 1 1 2 0 0 1

>  <source_rank_in_scored_call>  (172) 
16

>  <source_current_task>  (172) 
build_to_O_a

>  <scenario>  (172) 
1 2 3 1 0 2 1 1 2 0 0

>  <protected_ring_attachments>  (172) 
3,1,0,2|1,0,2;4,5,0,2|5,0,2;8,9,10,13|9,10,13;9,8,7,2|8,7,2;11,12,7,2|12,7,2;12,11,10,13|11,10,13

>  <current_task>  (172) 
no_task

>  <rotatable_bond_torsions>  (172) 
1,0,2,7;0,2,7,8

$$$$

     RDKit          3D

 15 16  0  0  0  0  0  0  0  0999 V2000
  -27.8420   -7.5060  -31.2460 C   0  0  0  0  0  0  0  0  0  0  0  0
  -28.0630   -6.9260  -32.4600 N   0  0  0  0  0  0  0  0  0  0  0  0
  -27.3790   -8.9330  -31.1580 N   0  0  0  0  0  0  0  0  0  0  0  0
  -28.4340   -5.6480  -32.2610 C   0  0  0  0  0  0  0  0  0  0  0  0
  -28.4390   -5.4510  -30.9120 N   0  0  0  0  0  0  0  0  0  0  0  0
  -28.0830   -6.5700  -30.3080 N   0  0  0  0  0  0  0  0  0  0  0  0
  -27.6820   -6.9130  -28.9180 C   0  0  0  0  0  0  0  0  0  0  0  0
  -28.3670   -9.9760  -30.7150 C   0  0  0  0  0  0  0  0  0  0  0  0
  -28.0370  -11.2750  -31.0840 C   0  0  0  0  0  0  0  0  0  0  0  0
  -28.9310  -12.2840  -30.7880 C   0  0  0  0  0  0  0  0  0  0  0  0
  -30.1280  -12.0830  -30.1520 C   0  0  0  0  0  0  0  0  0  0  0  0
  -30.4590  -10.7780  -29.7810 C   0  0  0  0  0  0  0  0  0  0  0  0
  -29.5630   -9.7690  -30.0760 C   0  0  0  0  0  0  0  0  0  0  0  0
  -30.9780  -13.1340  -29.8880 O   0  0  0  0  0  0  0  0  0  0  0  0
  -30.6860  -13.8750  -28.6760 C   0  0  0  0  0  0  0  0  0  0  0  0
  1  2  2  0
  1  3  1  0
  1  6  1  0
  2  4  1  0
  3  8  1  0
  4  5  2  0
  5  6  1  0
  6  7  1  0
  8  9  2  0
  8 13  1  0
  9 10  1  0
 10 11  2  0
 11 14  1  0
 11 12  1  0
 12 13  2  0
 14 15  1  0
M  END
>  <name>  (173) 
Car Nac Nd0 Car Nac Nac Cs3 Car Car Car Car Car Car O_a Cs3

>  <indices>  (173) 
[0, 1, 2]

>  <tasks>  (173) 
probe_placing close_aromatic_ring close_aromatic_ring close_aromatic_ring ring_built build_to_Nac build_to_Nd0 close_aromatic_ring close_aromatic_ring close_aromatic_ring close_aromatic_ring close_aromatic_ring no_task

>  <prot_clashes>  (173) 
3

>  <NBS phar>  (173) 
0.34

>  <NBS_non-phar>  (173) 
0.558561897277832

>  <NBS>  (173) 
0.898561897277832

>  <source_stage>  (173) 
scored

>  <source_iter>  (173) 
12

>  <source_parent_mol>  (173) 
1

>  <source_scenario>  (173) 
1 2 3 1 0 2 1 1 2 0 0 1

>  <source_rank_in_scored_call>  (173) 
17

>  <source_current_task>  (173) 
build_to_O_a

>  <scenario>  (173) 
1 2 3 1 0 2 1 1 2 0 0

>  <protected_ring_attachments>  (173) 
3,1,0,2|1,0,2;4,5,0,2|5,0,2;8,9,10,13|9,10,13;9,8,7,2|8,7,2;11,12,7,2|12,7,2;12,11,10,13|11,10,13

>  <current_task>  (173) 
no_task

>  <rotatable_bond_torsions>  (173) 
1,0,2,7;0,2,7,8

$$$$

     RDKit          3D

 15 16  0  0  0  0  0  0  0  0999 V2000
  -27.8420   -7.5050  -31.2460 C   0  0  0  0  0  0  0  0  0  0  0  0
  -28.0630   -6.9250  -32.4590 N   0  0  0  0  0  0  0  0  0  0  0  0
  -27.3790   -8.9320  -31.1580 N   0  0  0  0  0  0  0  0  0  0  0  0
  -28.4340   -5.6480  -32.2600 C   0  0  0  0  0  0  0  0  0  0  0  0
  -28.4390   -5.4510  -30.9110 N   0  0  0  0  0  0  0  0  0  0  0  0
  -28.0830   -6.5700  -30.3070 N   0  0  0  0  0  0  0  0  0  0  0  0
  -27.6820   -6.9130  -28.9180 C   0  0  0  0  0  0  0  0  0  0  0  0
  -28.3670   -9.9760  -30.7150 C   0  0  0  0  0  0  0  0  0  0  0  0
  -28.0370  -11.2740  -31.0840 C   0  0  0  0  0  0  0  0  0  0  0  0
  -28.9310  -12.2840  -30.7880 C   0  0  0  0  0  0  0  0  0  0  0  0
  -30.1280  -12.0820  -30.1520 C   0  0  0  0  0  0  0  0  0  0  0  0
  -30.4590  -10.7780  -29.7810 C   0  0  0  0  0  0  0  0  0  0  0  0
  -29.5630   -9.7690  -30.0760 C   0  0  0  0  0  0  0  0  0  0  0  0
  -30.9780  -13.1340  -29.8880 O   0  0  0  0  0  0  0  0  0  0  0  0
  -31.0660  -13.6110  -28.5750 C   0  0  0  0  0  0  0  0  0  0  0  0
  1  2  2  0
  1  3  1  0
  1  6  1  0
  2  4  1  0
  3  8  1  0
  4  5  2  0
  5  6  1  0
  6  7  1  0
  8  9  2  0
  8 13  1  0
  9 10  1  0
 10 11  2  0
 11 14  1  0
 11 12  1  0
 12 13  2  0
 14 15  1  0
M  END
>  <name>  (174) 
Car Nac Nd0 Car Nac Nac Cs3 Car Car Car Car Car Car O_a Cs3

>  <indices>  (174) 
[0, 1, 2]

>  <tasks>  (174) 
probe_placing close_aromatic_ring close_aromatic_ring close_aromatic_ring ring_built build_to_Nac build_to_Nd0 close_aromatic_ring close_aromatic_ring close_aromatic_ring close_aromatic_ring close_aromatic_ring no_task

>  <prot_clashes>  (174) 
3

>  <NBS phar>  (174) 
0.34

>  <NBS_non-phar>  (174) 
0.5573609034220378

>  <NBS>  (174) 
0.8973609034220378

>  <source_stage>  (174) 
scored

>  <source_iter>  (174) 
12

>  <source_parent_mol>  (174) 
1

>  <source_scenario>  (174) 
1 2 3 1 0 2 1 1 2 0 0 1

>  <source_rank_in_scored_call>  (174) 
19

>  <source_current_task>  (174) 
build_to_O_a

>  <scenario>  (174) 
1 2 3 1 0 2 1 1 2 0 0

>  <protected_ring_attachments>  (174) 
3,1,0,2|1,0,2;4,5,0,2|5,0,2;8,9,10,13|9,10,13;9,8,7,2|8,7,2;11,12,7,2|12,7,2;12,11,10,13|11,10,13

>  <current_task>  (174) 
no_task

>  <rotatable_bond_torsions>  (174) 
1,0,2,7;0,2,7,8

$$$$

     RDKit          3D

 15 16  0  0  0  0  0  0  0  0999 V2000
  -27.8380   -7.5130  -31.2450 C   0  0  0  0  0  0  0  0  0  0  0  0
  -28.0530   -7.0010  -32.4900 N   0  0  0  0  0  0  0  0  0  0  0  0
  -27.3750   -8.9320  -31.0750 N   0  0  0  0  0  0  0  0  0  0  0  0
  -28.4260   -5.7150  -32.3640 C   0  0  0  0  0  0  0  0  0  0  0  0
  -28.4370   -5.4430  -31.0280 N   0  0  0  0  0  0  0  0  0  0  0  0
  -28.0840   -6.5260  -30.3610 N   0  0  0  0  0  0  0  0  0  0  0  0
  -27.6890   -6.7920  -28.9530 C   0  0  0  0  0  0  0  0  0  0  0  0
  -28.3630   -9.9500  -30.5800 C   0  0  0  0  0  0  0  0  0  0  0  0
  -28.0310  -11.2670  -30.8740 C   0  0  0  0  0  0  0  0  0  0  0  0
  -28.9260  -12.2590  -30.5280 C   0  0  0  0  0  0  0  0  0  0  0  0
  -30.1270  -12.0240  -29.9090 C   0  0  0  0  0  0  0  0  0  0  0  0
  -30.4600  -10.7010  -29.6130 C   0  0  0  0  0  0  0  0  0  0  0  0
  -29.5630   -9.7090  -29.9600 C   0  0  0  0  0  0  0  0  0  0  0  0
  -30.9760  -13.0600  -29.5910 O   0  0  0  0  0  0  0  0  0  0  0  0
  -30.6330  -14.3890  -29.8880 C   0  0  0  0  0  0  0  0  0  0  0  0
  1  2  2  0
  1  3  1  0
  1  6  1  0
  2  4  1  0
  3  8  1  0
  4  5  2  0
  5  6  1  0
  6  7  1  0
  8  9  2  0
  8 13  1  0
  9 10  1  0
 10 11  2  0
 11 12  1  0
 11 14  1  0
 12 13  2  0
 14 15  1  0
M  END
>  <name>  (175) 
Car Nac Nd0 Car Nac Nac Cs3 Car Car Car Car Car Car O_a Cs3

>  <indices>  (175) 
[0, 1, 2]

>  <tasks>  (175) 
probe_placing close_aromatic_ring close_aromatic_ring close_aromatic_ring ring_built build_to_Nac build_to_Nd0 close_aromatic_ring close_aromatic_ring close_aromatic_ring close_aromatic_ring close_aromatic_ring no_task

>  <prot_clashes>  (175) 
4

>  <NBS phar>  (175) 
0.24000000000000005

>  <NBS_non-phar>  (175) 
0.5839045842488607

>  <NBS>  (175) 
0.8239045842488608

>  <source_stage>  (175) 
scored

>  <source_iter>  (175) 
12

>  <source_parent_mol>  (175) 
1

>  <source_scenario>  (175) 
1 2 3 1 0 2 1 1 2 0 0 1

>  <source_rank_in_scored_call>  (175) 
27

>  <source_current_task>  (175) 
build_to_O_a

>  <scenario>  (175) 
1 2 3 1 0 2 1 1 2 0 0

>  <protected_ring_attachments>  (175) 
3,1,0,2|1,0,2;4,5,0,2|5,0,2;8,9,10,13|9,10,13;9,8,7,2|8,7,2;11,12,7,2|12,7,2;12,11,10,13|11,10,13

>  <current_task>  (175) 
no_task

>  <rotatable_bond_torsions>  (175) 
1,0,2,7;0,2,7,8

$$$$

     RDKit          3D

 15 16  0  0  0  0  0  0  0  0999 V2000
  -27.8300   -7.4820  -31.1270 C   0  0  0  0  0  0  0  0  0  0  0  0
  -28.0590   -7.1640  -32.4330 N   0  0  0  0  0  0  0  0  0  0  0  0
  -27.3700   -8.8620  -30.7490 N   0  0  0  0  0  0  0  0  0  0  0  0
  -28.4260   -5.8720  -32.5000 C   0  0  0  0  0  0  0  0  0  0  0  0
  -28.4210   -5.4010  -31.2210 N   0  0  0  0  0  0  0  0  0  0  0  0
  -28.0630   -6.3720  -30.4010 N   0  0  0  0  0  0  0  0  0  0  0  0
  -27.6530   -6.4230  -28.9730 C   0  0  0  0  0  0  0  0  0  0  0  0
  -28.3560   -9.7880  -30.0940 C   0  0  0  0  0  0  0  0  0  0  0  0
  -28.0320  -11.1360  -30.1890 C   0  0  0  0  0  0  0  0  0  0  0  0
  -28.9260  -12.0600  -29.6870 C   0  0  0  0  0  0  0  0  0  0  0  0
  -30.1180  -11.7270  -29.0980 C   0  0  0  0  0  0  0  0  0  0  0  0
  -30.4440  -10.3730  -29.0020 C   0  0  0  0  0  0  0  0  0  0  0  0
  -29.5480   -9.4490  -29.5050 C   0  0  0  0  0  0  0  0  0  0  0  0
  -30.9680  -12.6990  -28.6170 O   0  0  0  0  0  0  0  0  0  0  0  0
  -31.7230  -13.4410  -29.5420 C   0  0  0  0  0  0  0  0  0  0  0  0
  1  2  2  0
  1  3  1  0
  1  6  1  0
  2  4  1  0
  3  8  1  0
  4  5  2  0
  5  6  1  0
  6  7  1  0
  8  9  2  0
  8 13  1  0
  9 10  1  0
 10 11  2  0
 11 12  1  0
 11 14  1  0
 12 13  2  0
 14 15  1  0
M  END
>  <name>  (176) 
Car Nac Nd0 Car Nac Nac Cs3 Car Car Car Car Car Car O_a Cs3

>  <indices>  (176) 
[0, 1, 2]

>  <tasks>  (176) 
probe_placing close_aromatic_ring close_aromatic_ring close_aromatic_ring ring_built build_to_Nac build_to_Nd0 close_aromatic_ring close_aromatic_ring close_aromatic_ring close_aromatic_ring close_aromatic_ring no_task

>  <prot_clashes>  (176) 
10

>  <NBS phar>  (176) 
0.13999999999999999

>  <NBS_non-phar>  (176) 
0.48914222717285155

>  <NBS>  (176) 
0.6291422271728515

>  <source_stage>  (176) 
scored

>  <source_iter>  (176) 
12

>  <source_parent_mol>  (176) 
1

>  <source_scenario>  (176) 
1 2 3 1 0 2 1 1 2 0 0 1

>  <source_rank_in_scored_call>  (176) 
34

>  <source_current_task>  (176) 
build_to_O_a

>  <scenario>  (176) 
1 2 3 1 0 2 1 1 2 0 0

>  <protected_ring_attachments>  (176) 
3,1,0,2|1,0,2;4,5,0,2|5,0,2;8,9,10,13|9,10,13;9,8,7,2|8,7,2;11,12,7,2|12,7,2;12,11,10,13|11,10,13

>  <current_task>  (176) 
no_task

>  <rotatable_bond_torsions>  (176) 
1,0,2,7;0,2,7,8

$$$$

     RDKit          3D

 15 16  0  0  0  0  0  0  0  0999 V2000
  -27.8430   -7.4880  -31.0670 C   0  0  0  0  0  0  0  0  0  0  0  0
  -28.0560   -7.1990  -32.3820 N   0  0  0  0  0  0  0  0  0  0  0  0
  -27.3940   -8.8600  -30.6520 N   0  0  0  0  0  0  0  0  0  0  0  0
  -28.4160   -5.9070  -32.4820 C   0  0  0  0  0  0  0  0  0  0  0  0
  -28.4230   -5.4070  -31.2140 N   0  0  0  0  0  0  0  0  0  0  0  0
  -28.0790   -6.3600  -30.3690 N   0  0  0  0  0  0  0  0  0  0  0  0
  -27.6850   -6.3800  -28.9350 C   0  0  0  0  0  0  0  0  0  0  0  0
  -28.3920   -9.7670  -29.9870 C   0  0  0  0  0  0  0  0  0  0  0  0
  -28.0730  -11.1180  -30.0480 C   0  0  0  0  0  0  0  0  0  0  0  0
  -28.9770  -12.0260  -29.5340 C   0  0  0  0  0  0  0  0  0  0  0  0
  -30.1740  -11.6740  -28.9670 C   0  0  0  0  0  0  0  0  0  0  0  0
  -30.4950  -10.3170  -28.9050 C   0  0  0  0  0  0  0  0  0  0  0  0
  -29.5880   -9.4090  -29.4190 C   0  0  0  0  0  0  0  0  0  0  0  0
  -31.0340  -12.6310  -28.4730 O   0  0  0  0  0  0  0  0  0  0  0  0
  -31.6300  -13.3590  -29.5370 C   0  0  0  0  0  0  0  0  0  0  0  0
  1  2  2  0
  1  3  1  0
  1  6  1  0
  2  4  1  0
  3  8  1  0
  4  5  2  0
  5  6  1  0
  6  7  1  0
  8  9  2  0
  8 13  1  0
  9 10  1  0
 10 11  2  0
 11 12  1  0
 11 14  1  0
 12 13  2  0
 14 15  1  0
M  END
>  <name>  (177) 
Car Nac Nd0 Car Nac Nac Cs3 Car Car Car Car Car Car O_a Cs3

>  <indices>  (177) 
[0, 1, 2]

>  <tasks>  (177) 
probe_placing close_aromatic_ring close_aromatic_ring close_aromatic_ring ring_built build_to_Nac build_to_Nd0 close_aromatic_ring close_aromatic_ring close_aromatic_ring close_aromatic_ring close_aromatic_ring no_task

>  <prot_clashes>  (177) 
10

>  <NBS phar>  (177) 
0.15999999999999998

>  <NBS_non-phar>  (177) 
0.46019121805826824

>  <NBS>  (177) 
0.6201912180582683

>  <source_stage>  (177) 
scored

>  <source_iter>  (177) 
12

>  <source_parent_mol>  (177) 
1

>  <source_scenario>  (177) 
1 2 3 1 0 2 1 1 2 0 0 1

>  <source_rank_in_scored_call>  (177) 
35

>  <source_current_task>  (177) 
build_to_O_a

>  <scenario>  (177) 
1 2 3 1 0 2 1 1 2 0 0

>  <protected_ring_attachments>  (177) 
3,1,0,2|1,0,2;4,5,0,2|5,0,2;8,9,10,13|9,10,13;9,8,7,2|8,7,2;11,12,7,2|12,7,2;12,11,10,13|11,10,13

>  <current_task>  (177) 
no_task

>  <rotatable_bond_torsions>  (177) 
1,0,2,7;0,2,7,8

$$$$

     RDKit          3D

 15 16  0  0  0  0  0  0  0  0999 V2000
  -27.8290   -7.4990  -31.1410 C   0  0  0  0  0  0  0  0  0  0  0  0
  -28.0630   -7.1760  -32.4450 N   0  0  0  0  0  0  0  0  0  0  0  0
  -27.3870   -8.8860  -30.7680 N   0  0  0  0  0  0  0  0  0  0  0  0
  -28.4110   -5.8780  -32.5070 C   0  0  0  0  0  0  0  0  0  0  0  0
  -28.3890   -5.4090  -31.2270 N   0  0  0  0  0  0  0  0  0  0  0  0
  -28.0400   -6.3860  -30.4120 N   0  0  0  0  0  0  0  0  0  0  0  0
  -27.6200   -6.4450  -28.9870 C   0  0  0  0  0  0  0  0  0  0  0  0
  -28.3820   -9.7980  -30.1070 C   0  0  0  0  0  0  0  0  0  0  0  0
  -28.0790  -11.1500  -30.2060 C   0  0  0  0  0  0  0  0  0  0  0  0
  -28.9830  -12.0610  -29.6970 C   0  0  0  0  0  0  0  0  0  0  0  0
  -30.1660  -11.7110  -29.0990 C   0  0  0  0  0  0  0  0  0  0  0  0
  -30.4700  -10.3530  -28.9990 C   0  0  0  0  0  0  0  0  0  0  0  0
  -29.5640   -9.4420  -29.5080 C   0  0  0  0  0  0  0  0  0  0  0  0
  -31.0260  -12.6700  -28.6130 O   0  0  0  0  0  0  0  0  0  0  0  0
  -32.1060  -13.0510  -29.5070 C   0  0  0  0  0  0  0  0  0  0  0  0
  1  2  2  0
  1  3  1  0
  1  6  1  0
  2  4  1  0
  3  8  1  0
  4  5  2  0
  5  6  1  0
  6  7  1  0
  8  9  2  0
  8 13  1  0
  9 10  1  0
 10 11  2  0
 11 12  1  0
 11 14  1  0
 12 13  2  0
 14 15  1  0
M  END
>  <name>  (178) 
Car Nac Nd0 Car Nac Nac Cs3 Car Car Car Car Car Car O_a Cs3

>  <indices>  (178) 
[0, 1, 2]

>  <tasks>  (178) 
probe_placing close_aromatic_ring close_aromatic_ring close_aromatic_ring ring_built build_to_Nac build_to_Nd0 close_aromatic_ring close_aromatic_ring close_aromatic_ring close_aromatic_ring close_aromatic_ring no_task

>  <prot_clashes>  (178) 
10

>  <NBS phar>  (178) 
0.13999999999999999

>  <NBS_non-phar>  (178) 
0.46087958017985026

>  <NBS>  (178) 
0.6008795801798502

>  <source_stage>  (178) 
scored

>  <source_iter>  (178) 
12

>  <source_parent_mol>  (178) 
1

>  <source_scenario>  (178) 
1 2 3 1 0 2 1 1 2 0 0 1

>  <source_rank_in_scored_call>  (178) 
39

>  <source_current_task>  (178) 
build_to_O_a

>  <scenario>  (178) 
1 2 3 1 0 2 1 1 2 0 0

>  <protected_ring_attachments>  (178) 
3,1,0,2|1,0,2;4,5,0,2|5,0,2;8,9,10,13|9,10,13;9,8,7,2|8,7,2;11,12,7,2|12,7,2;12,11,10,13|11,10,13

>  <current_task>  (178) 
no_task

>  <rotatable_bond_torsions>  (178) 
1,0,2,7;0,2,7,8

$$$$

     RDKit          3D

 13 14  0  0  0  0  0  0  0  0999 V2000
  -27.7880   -7.4460  -31.1970 C   0  0  0  0  0  0  0  0  0  0  0  0
  -28.0040   -7.0040  -32.4700 N   0  0  0  0  0  0  0  0  0  0  0  0
  -27.2740   -8.8370  -30.9510 N   0  0  0  0  0  0  0  0  0  0  0  0
  -28.4260   -5.7290  -32.4110 C   0  0  0  0  0  0  0  0  0  0  0  0
  -28.4640   -5.3930  -31.0920 N   0  0  0  0  0  0  0  0  0  0  0  0
  -28.0810   -6.4270  -30.3680 N   0  0  0  0  0  0  0  0  0  0  0  0
  -27.6950   -6.6040  -28.9430 C   0  0  0  0  0  0  0  0  0  0  0  0
  -28.2550   -9.8920  -30.3910 C   0  0  0  0  0  0  0  0  0  0  0  0
  -29.5620   -9.5070  -30.1350 C   0  0  0  0  0  0  0  0  0  0  0  0
  -30.4100  -10.4530  -29.5470 C   0  0  0  0  0  0  0  0  0  0  0  0
  -29.9690  -11.7190  -29.2320 C   0  0  0  0  0  0  0  0  0  0  0  0
  -28.6580  -12.1070  -29.4870 C   0  0  0  0  0  0  0  0  0  0  0  0
  -27.8290  -11.1690  -30.0670 C   0  0  0  0  0  0  0  0  0  0  0  0
  1  2  2  0
  1  3  1  0
  1  6  1  0
  2  4  1  0
  3  8  1  0
  4  5  2  0
  5  6  1  0
  6  7  1  0
  8  9  2  0
  8 13  1  0
  9 10  1  0
 10 11  2  0
 11 12  1  0
 12 13  2  0
M  END
>  <name>  (179) 
Car Nac Nd0 Car Nac Nac Cs3 Car Car Car Car Car Car

>  <indices>  (179) 
[0, 1, 2]

>  <tasks>  (179) 
probe_placing close_aromatic_ring close_aromatic_ring close_aromatic_ring ring_built build_to_Nac build_to_Nd0 close_aromatic_ring close_aromatic_ring close_aromatic_ring close_aromatic_ring

>  <prot_clashes>  (179) 
11

>  <NBS phar>  (179) 
0.26000000000000006

>  <NBS_non-phar>  (179) 
0.5849697039677546

>  <NBS>  (179) 
0.8449697039677546

>  <source_stage>  (179) 
scored

>  <source_iter>  (179) 
10

>  <source_parent_mol>  (179) 
3

>  <source_scenario>  (179) 
1 2 3 1 0 2 3 4 0 3

>  <source_rank_in_scored_call>  (179) 
0

>  <source_current_task>  (179) 
close_aromatic_ring

>  <scenario>  (179) 
1 2 3 1 0 2 3 4 0

>  <protected_ring_attachments>  (179) 
3,1,0,2|1,0,2;4,5,0,2|5,0,2

>  <current_task>  (179) 
no_task

>  <rotatable_bond_torsions>  (179) 
1,0,2,7;0,2,7,8;2,7,8,9;8,9,10,11

$$$$

     RDKit          3D

 14 15  0  0  0  0  0  0  0  0999 V2000
  -27.7930   -7.4730  -31.2060 C   0  0  0  0  0  0  0  0  0  0  0  0
  -28.0150   -6.9830  -32.4610 N   0  0  0  0  0  0  0  0  0  0  0  0
  -27.2790   -8.8720  -31.0150 N   0  0  0  0  0  0  0  0  0  0  0  0
  -28.4360   -5.7110  -32.3520 C   0  0  0  0  0  0  0  0  0  0  0  0
  -28.4670   -5.4250  -31.0210 N   0  0  0  0  0  0  0  0  0  0  0  0
  -28.0810   -6.4850  -30.3380 N   0  0  0  0  0  0  0  0  0  0  0  0
  -27.6880   -6.7160  -28.9230 C   0  0  0  0  0  0  0  0  0  0  0  0
  -28.2580   -9.9470  -30.4900 C   0  0  0  0  0  0  0  0  0  0  0  0
  -29.5630   -9.5710  -30.2130 C   0  0  0  0  0  0  0  0  0  0  0  0
  -30.4090  -10.5370  -29.6570 C   0  0  0  0  0  0  0  0  0  0  0  0
  -29.9680  -11.8150  -29.3910 C   0  0  0  0  0  0  0  0  0  0  0  0
  -28.6590  -12.1940  -29.6670 C   0  0  0  0  0  0  0  0  0  0  0  0
  -27.8320  -11.2350  -30.2160 C   0  0  0  0  0  0  0  0  0  0  0  0
  -30.9210  -12.8190  -28.7920 C   0  0  0  0  0  0  0  0  0  0  0  0
  1  2  2  0
  1  3  1  0
  1  6  1  0
  2  4  1  0
  3  8  1  0
  4  5  2  0
  5  6  1  0
  6  7  1  0
  8 13  1  0
  8  9  2  0
  9 10  1  0
 10 11  2  0
 11 12  1  0
 11 14  1  0
 12 13  2  0
M  END
>  <name>  (180) 
Car Nac Nd0 Car Nac Nac Cs3 Car Car Car Car Car Car Cs3

>  <indices>  (180) 
[0, 1, 2]

>  <tasks>  (180) 
probe_placing close_aromatic_ring close_aromatic_ring close_aromatic_ring ring_built build_to_Nac build_to_Nd0 close_aromatic_ring close_aromatic_ring close_aromatic_ring close_aromatic_ring close_aromatic_ring

>  <prot_clashes>  (180) 
9

>  <NBS phar>  (180) 
0.26000000000000006

>  <NBS_non-phar>  (180) 
0.6099473408290318

>  <NBS>  (180) 
0.8699473408290319

>  <source_stage>  (180) 
scored

>  <source_iter>  (180) 
11

>  <source_parent_mol>  (180) 
0

>  <source_scenario>  (180) 
1 2 3 1 0 2 3 4 0 3 0

>  <source_rank_in_scored_call>  (180) 
8

>  <source_current_task>  (180) 
no_task

>  <scenario>  (180) 
1 2 3 1 0 2 3 4 0 3

>  <protected_ring_attachments>  (180) 
3,1,0,2|1,0,2;4,5,0,2|5,0,2;9,8,7,2|8,7,2;11,12,7,2|12,7,2

>  <current_task>  (180) 
no_task

>  <rotatable_bond_torsions>  (180) 
1,0,2,7;0,2,7,8

$$$$

     RDKit          3D

 14 15  0  0  0  0  0  0  0  0999 V2000
  -27.7940   -7.4500  -31.1960 C   0  0  0  0  0  0  0  0  0  0  0  0
  -28.0180   -7.0080  -32.4670 N   0  0  0  0  0  0  0  0  0  0  0  0
  -27.2800   -8.8420  -30.9530 N   0  0  0  0  0  0  0  0  0  0  0  0
  -28.4380   -5.7330  -32.4060 C   0  0  0  0  0  0  0  0  0  0  0  0
  -28.4680   -5.3970  -31.0860 N   0  0  0  0  0  0  0  0  0  0  0  0
  -28.0810   -6.4310  -30.3650 N   0  0  0  0  0  0  0  0  0  0  0  0
  -27.6870   -6.6090  -28.9420 C   0  0  0  0  0  0  0  0  0  0  0  0
  -28.2580   -9.8960  -30.3880 C   0  0  0  0  0  0  0  0  0  0  0  0
  -29.5630   -9.5100  -30.1230 C   0  0  0  0  0  0  0  0  0  0  0  0
  -30.4080  -10.4560  -29.5300 C   0  0  0  0  0  0  0  0  0  0  0  0
  -29.9660  -11.7220  -29.2180 C   0  0  0  0  0  0  0  0  0  0  0  0
  -28.6570  -12.1110  -29.4810 C   0  0  0  0  0  0  0  0  0  0  0  0
  -27.8310  -11.1730  -30.0660 C   0  0  0  0  0  0  0  0  0  0  0  0
  -28.1630  -13.4950  -29.1430 C   0  0  0  0  0  0  0  0  0  0  0  0
  1  2  2  0
  1  3  1  0
  1  6  1  0
  2  4  1  0
  3  8  1  0
  4  5  2  0
  5  6  1  0
  6  7  1  0
  8  9  2  0
  8 13  1  0
  9 10  1  0
 10 11  2  0
 11 12  1  0
 12 13  2  0
 12 14  1  0
M  END
>  <name>  (181) 
Car Nac Nd0 Car Nac Nac Cs3 Car Car Car Car Car Car Cs3

>  <indices>  (181) 
[0, 1, 2]

>  <tasks>  (181) 
probe_placing close_aromatic_ring close_aromatic_ring close_aromatic_ring ring_built build_to_Nac build_to_Nd0 close_aromatic_ring close_aromatic_ring close_aromatic_ring close_aromatic_ring close_aromatic_ring

>  <prot_clashes>  (181) 
11

>  <NBS phar>  (181) 
0.26000000000000006

>  <NBS_non-phar>  (181) 
0.576615606035505

>  <NBS>  (181) 
0.836615606035505

>  <source_stage>  (181) 
scored

>  <source_iter>  (181) 
11

>  <source_parent_mol>  (181) 
0

>  <source_scenario>  (181) 
1 2 3 1 0 2 3 4 0 3 0

>  <source_rank_in_scored_call>  (181) 
28

>  <source_current_task>  (181) 
no_task

>  <scenario>  (181) 
1 2 3 1 0 2 3 4 0 3

>  <protected_ring_attachments>  (181) 
3,1,0,2|1,0,2;4,5,0,2|5,0,2;9,8,7,2|8,7,2;11,12,7,2|12,7,2

>  <current_task>  (181) 
no_task

>  <rotatable_bond_torsions>  (181) 
1,0,2,7;0,2,7,8

$$$$

     RDKit          3D

 14 15  0  0  0  0  0  0  0  0999 V2000
  -27.7880   -7.5690  -31.3150 C   0  0  0  0  0  0  0  0  0  0  0  0
  -28.0510   -6.9990  -32.5270 N   0  0  0  0  0  0  0  0  0  0  0  0
  -27.2920   -8.9860  -31.2320 N   0  0  0  0  0  0  0  0  0  0  0  0
  -28.4440   -5.7300  -32.3240 C   0  0  0  0  0  0  0  0  0  0  0  0
  -28.4180   -5.5270  -30.9770 N   0  0  0  0  0  0  0  0  0  0  0  0
  -28.0240   -6.6340  -30.3770 N   0  0  0  0  0  0  0  0  0  0  0  0
  -27.5800   -6.9580  -28.9960 C   0  0  0  0  0  0  0  0  0  0  0  0
  -28.2690  -10.0760  -30.7350 C   0  0  0  0  0  0  0  0  0  0  0  0
  -29.5560   -9.6980  -30.3830 C   0  0  0  0  0  0  0  0  0  0  0  0
  -30.3960  -10.6840  -29.8540 C   0  0  0  0  0  0  0  0  0  0  0  0
  -29.9680  -11.9820  -29.6860 C   0  0  0  0  0  0  0  0  0  0  0  0
  -28.6770  -12.3630  -30.0370 C   0  0  0  0  0  0  0  0  0  0  0  0
  -27.8560  -11.3850  -30.5580 C   0  0  0  0  0  0  0  0  0  0  0  0
  -28.8130   -7.3540  -28.1700 C   0  0  0  0  0  0  0  0  0  0  0  0
  1  2  2  0
  1  3  1  0
  1  6  1  0
  2  4  1  0
  3  8  1  0
  4  5  2  0
  5  6  1  0
  6  7  1  0
  8 13  1  0
  8  9  2  0
  9 10  1  0
 10 11  2  0
 11 12  1  0
 12 13  2  0
  7 14  1  0
M  END
>  <name>  (182) 
Car Nac Nd0 Car Nac Nac Cs3 Car Car Car Car Car Car Cs3

>  <indices>  (182) 
[0, 1, 2]

>  <tasks>  (182) 
probe_placing close_aromatic_ring close_aromatic_ring close_aromatic_ring ring_built build_to_Nac build_to_Nd0 close_aromatic_ring close_aromatic_ring close_aromatic_ring close_aromatic_ring close_aromatic_ring

>  <prot_clashes>  (182) 
10

>  <NBS phar>  (182) 
0.26000000000000006

>  <NBS_non-phar>  (182) 
0.5507654462541852

>  <NBS>  (182) 
0.8107654462541853

>  <source_stage>  (182) 
scored

>  <source_iter>  (182) 
11

>  <source_parent_mol>  (182) 
0

>  <source_scenario>  (182) 
1 2 3 1 0 2 3 4 0 3 0

>  <source_rank_in_scored_call>  (182) 
40

>  <source_current_task>  (182) 
no_task

>  <scenario>  (182) 
1 2 3 1 0 2 3 4 0 3

>  <protected_ring_attachments>  (182) 
3,1,0,2|1,0,2;4,5,0,2|5,0,2;9,8,7,2|8,7,2;11,12,7,2|12,7,2

>  <current_task>  (182) 
no_task

>  <rotatable_bond_torsions>  (182) 
1,0,2,7;0,2,7,8

$$$$

     RDKit          3D

 14 15  0  0  0  0  0  0  0  0999 V2000
  -27.7810   -7.6220  -31.3520 C   0  0  0  0  0  0  0  0  0  0  0  0
  -28.0600   -6.9550  -32.5100 N   0  0  0  0  0  0  0  0  0  0  0  0
  -27.2850   -9.0400  -31.3910 N   0  0  0  0  0  0  0  0  0  0  0  0
  -28.4480   -5.7070  -32.1990 C   0  0  0  0  0  0  0  0  0  0  0  0
  -28.4020   -5.6130  -30.8410 N   0  0  0  0  0  0  0  0  0  0  0  0
  -28.0020   -6.7650  -30.3380 N   0  0  0  0  0  0  0  0  0  0  0  0
  -27.5380   -7.2000  -28.9940 C   0  0  0  0  0  0  0  0  0  0  0  0
  -28.2560  -10.1670  -30.9700 C   0  0  0  0  0  0  0  0  0  0  0  0
  -29.5370   -9.8180  -30.5700 C   0  0  0  0  0  0  0  0  0  0  0  0
  -30.3710  -10.8440  -30.1100 C   0  0  0  0  0  0  0  0  0  0  0  0
  -29.9420  -12.1510  -30.0530 C   0  0  0  0  0  0  0  0  0  0  0  0
  -28.6570  -12.5030  -30.4530 C   0  0  0  0  0  0  0  0  0  0  0  0
  -27.8420  -11.4860  -30.9060 C   0  0  0  0  0  0  0  0  0  0  0  0
  -28.7430   -7.6000  -28.1850 C   0  0  0  0  0  0  0  0  0  0  0  0
  1  2  2  0
  1  3  1  0
  1  6  1  0
  2  4  1  0
  3  8  1  0
  4  5  2  0
  5  6  1  0
  6  7  1  0
  8 13  1  0
  8  9  2  0
  9 10  1  0
 10 11  2  0
 11 12  1  0
 12 13  2  0
  7 14  1  0
M  END
>  <name>  (183) 
Car Nac Nd0 Car Nac Nac Cs3 Car Car Car Car Car Car Cs3

>  <indices>  (183) 
[0, 1, 2]

>  <tasks>  (183) 
probe_placing close_aromatic_ring close_aromatic_ring close_aromatic_ring ring_built build_to_Nac build_to_Nd0 close_aromatic_ring close_aromatic_ring close_aromatic_ring close_aromatic_ring close_aromatic_ring

>  <prot_clashes>  (183) 
9

>  <NBS phar>  (183) 
0.22000000000000003

>  <NBS_non-phar>  (183) 
0.5321333067757743

>  <NBS>  (183) 
0.7521333067757743

>  <source_stage>  (183) 
scored

>  <source_iter>  (183) 
11

>  <source_parent_mol>  (183) 
0

>  <source_scenario>  (183) 
1 2 3 1 0 2 3 4 0 3 0

>  <source_rank_in_scored_call>  (183) 
52

>  <source_current_task>  (183) 
no_task

>  <scenario>  (183) 
1 2 3 1 0 2 3 4 0 3

>  <protected_ring_attachments>  (183) 
3,1,0,2|1,0,2;4,5,0,2|5,0,2;9,8,7,2|8,7,2;11,12,7,2|12,7,2

>  <current_task>  (183) 
no_task

>  <rotatable_bond_torsions>  (183) 
1,0,2,7;0,2,7,8

$$$$

     RDKit          3D

 14 15  0  0  0  0  0  0  0  0999 V2000
  -27.4680   -7.2760  -30.5990 C   0  0  0  0  0  0  0  0  0  0  0  0
  -27.2600   -7.4240  -31.9390 N   0  0  0  0  0  0  0  0  0  0  0  0
  -26.8710   -8.2520  -29.6240 N   0  0  0  0  0  0  0  0  0  0  0  0
  -27.8680   -6.4090  -32.5780 C   0  0  0  0  0  0  0  0  0  0  0  0
  -28.4480   -5.6370  -31.6170 N   0  0  0  0  0  0  0  0  0  0  0  0
  -28.2050   -6.1620  -30.4320 N   0  0  0  0  0  0  0  0  0  0  0  0
  -28.3550   -5.6740  -29.0350 C   0  0  0  0  0  0  0  0  0  0  0  0
  -27.8120   -9.2680  -28.9360 C   0  0  0  0  0  0  0  0  0  0  0  0
  -29.1630   -9.2290  -29.2440 C   0  0  0  0  0  0  0  0  0  0  0  0
  -30.0090  -10.0980  -28.5450 C   0  0  0  0  0  0  0  0  0  0  0  0
  -29.5250  -10.9610  -27.5880 C   0  0  0  0  0  0  0  0  0  0  0  0
  -28.1700  -11.0010  -27.2760 C   0  0  0  0  0  0  0  0  0  0  0  0
  -27.3430  -10.1410  -27.9700 C   0  0  0  0  0  0  0  0  0  0  0  0
  -29.5570   -4.7670  -28.8760 C   0  0  0  0  0  0  0  0  0  0  0  0
  1  2  2  0
  1  6  1  0
  1  3  1  0
  2  4  1  0
  3  8  1  0
  4  5  2  0
  5  6  1  0
  6  7  1  0
  8  9  2  0
  8 13  1  0
  9 10  1  0
 10 11  2  0
 11 12  1  0
 12 13  2  0
  7 14  1  0
M  END
>  <name>  (184) 
Car Nac Nd0 Car Nac Nac Cs3 Car Car Car Car Car Car Cs3

>  <indices>  (184) 
[0, 1, 2]

>  <tasks>  (184) 
probe_placing close_aromatic_ring close_aromatic_ring close_aromatic_ring ring_built build_to_Nac build_to_Nd0 close_aromatic_ring close_aromatic_ring close_aromatic_ring close_aromatic_ring close_aromatic_ring

>  <prot_clashes>  (184) 
7

>  <NBS phar>  (184) 
0.13999999999999999

>  <NBS_non-phar>  (184) 
0.3819457803453718

>  <NBS>  (184) 
0.5219457803453718

>  <source_stage>  (184) 
scored

>  <source_iter>  (184) 
11

>  <source_parent_mol>  (184) 
0

>  <source_scenario>  (184) 
1 2 3 1 0 2 3 4 0 3 0

>  <source_rank_in_scored_call>  (184) 
69

>  <source_current_task>  (184) 
no_task

>  <scenario>  (184) 
1 2 3 1 0 2 3 4 0 3

>  <protected_ring_attachments>  (184) 
3,1,0,2|1,0,2;4,5,0,2|5,0,2;9,8,7,2|8,7,2;11,12,7,2|12,7,2

>  <current_task>  (184) 
no_task

>  <rotatable_bond_torsions>  (184) 
1,0,2,7;0,2,7,8

$$$$

     RDKit          3D

 14 15  0  0  0  0  0  0  0  0999 V2000
  -27.7750   -6.9610  -30.4750 C   0  0  0  0  0  0  0  0  0  0  0  0
  -27.5630   -7.0510  -31.8200 N   0  0  0  0  0  0  0  0  0  0  0  0
  -27.1180   -7.9320  -29.5350 N   0  0  0  0  0  0  0  0  0  0  0  0
  -28.2320   -6.0520  -32.4230 C   0  0  0  0  0  0  0  0  0  0  0  0
  -28.8530   -5.3490  -31.4360 N   0  0  0  0  0  0  0  0  0  0  0  0
  -28.5750   -5.8980  -30.2690 N   0  0  0  0  0  0  0  0  0  0  0  0
  -28.7500   -5.4670  -28.8570 C   0  0  0  0  0  0  0  0  0  0  0  0
  -27.9950   -9.0240  -28.8800 C   0  0  0  0  0  0  0  0  0  0  0  0
  -29.3470   -9.0550  -29.1850 C   0  0  0  0  0  0  0  0  0  0  0  0
  -30.1380   -9.9960  -28.5150 C   0  0  0  0  0  0  0  0  0  0  0  0
  -29.6000  -10.8600  -27.5880 C   0  0  0  0  0  0  0  0  0  0  0  0
  -28.2440  -10.8310  -27.2800 C   0  0  0  0  0  0  0  0  0  0  0  0
  -27.4720   -9.9010  -27.9450 C   0  0  0  0  0  0  0  0  0  0  0  0
  -28.3270   -3.9780  -28.5640 C   0  0  0  0  0  0  0  0  0  0  0  0
  1  2  2  0
  1  6  1  0
  1  3  1  0
  2  4  1  0
  3  8  1  0
  4  5  2  0
  5  6  1  0
  6  7  1  0
  8  9  2  0
  8 13  1  0
  9 10  1  0
 10 11  2  0
 11 12  1  0
 12 13  2  0
  7 14  1  0
M  END
>  <name>  (185) 
Car Nac Nd0 Car Nac Nac Cs3 Car Car Car Car Car Car Cs3

>  <indices>  (185) 
[0, 1, 2]

>  <tasks>  (185) 
probe_placing close_aromatic_ring close_aromatic_ring close_aromatic_ring ring_built build_to_Nac build_to_Nd0 close_aromatic_ring close_aromatic_ring close_aromatic_ring close_aromatic_ring close_aromatic_ring

>  <prot_clashes>  (185) 
6

>  <NBS phar>  (185) 
0.12

>  <NBS_non-phar>  (185) 
0.39413128580365864

>  <NBS>  (185) 
0.5141312858036586

>  <source_stage>  (185) 
scored

>  <source_iter>  (185) 
11

>  <source_parent_mol>  (185) 
0

>  <source_scenario>  (185) 
1 2 3 1 0 2 3 4 0 3 0

>  <source_rank_in_scored_call>  (185) 
70

>  <source_current_task>  (185) 
no_task

>  <scenario>  (185) 
1 2 3 1 0 2 3 4 0 3

>  <protected_ring_attachments>  (185) 
3,1,0,2|1,0,2;4,5,0,2|5,0,2;9,8,7,2|8,7,2;11,12,7,2|12,7,2

>  <current_task>  (185) 
no_task

>  <rotatable_bond_torsions>  (185) 
1,0,2,7;0,2,7,8

$$$$

     RDKit          3D

 14 15  0  0  0  0  0  0  0  0999 V2000
  -27.5930   -6.9140  -30.5680 C   0  0  0  0  0  0  0  0  0  0  0  0
  -27.3010   -7.0080  -31.8980 N   0  0  0  0  0  0  0  0  0  0  0  0
  -26.9690   -7.8620  -29.5830 N   0  0  0  0  0  0  0  0  0  0  0  0
  -27.9580   -6.0310  -32.5470 C   0  0  0  0  0  0  0  0  0  0  0  0
  -28.6530   -5.3370  -31.6040 N   0  0  0  0  0  0  0  0  0  0  0  0
  -28.4310   -5.8710  -30.4190 N   0  0  0  0  0  0  0  0  0  0  0  0
  -28.6990   -5.4350  -29.0230 C   0  0  0  0  0  0  0  0  0  0  0  0
  -27.8550   -8.9710  -28.9720 C   0  0  0  0  0  0  0  0  0  0  0  0
  -29.1860   -9.0390  -29.3550 C   0  0  0  0  0  0  0  0  0  0  0  0
  -29.9910   -9.9950  -28.7250 C   0  0  0  0  0  0  0  0  0  0  0  0
  -29.4870  -10.8390  -27.7610 C   0  0  0  0  0  0  0  0  0  0  0  0
  -28.1530  -10.7730  -27.3740 C   0  0  0  0  0  0  0  0  0  0  0  0
  -27.3660   -9.8280  -28.0000 C   0  0  0  0  0  0  0  0  0  0  0  0
  -29.1810   -3.9850  -28.9260 C   0  0  0  0  0  0  0  0  0  0  0  0
  1  2  2  0
  1  6  1  0
  1  3  1  0
  2  4  1  0
  3  8  1  0
  4  5  2  0
  5  6  1  0
  6  7  1  0
  8  9  2  0
  8 13  1  0
  9 10  1  0
 10 11  2  0
 11 12  1  0
 12 13  2  0
  7 14  1  0
M  END
>  <name>  (186) 
Car Nac Nd0 Car Nac Nac Cs3 Car Car Car Car Car Car Cs3

>  <indices>  (186) 
[0, 1, 2]

>  <tasks>  (186) 
probe_placing close_aromatic_ring close_aromatic_ring close_aromatic_ring ring_built build_to_Nac build_to_Nd0 close_aromatic_ring close_aromatic_ring close_aromatic_ring close_aromatic_ring close_aromatic_ring

>  <prot_clashes>  (186) 
6

>  <NBS phar>  (186) 
0.12

>  <NBS_non-phar>  (186) 
0.366689716066633

>  <NBS>  (186) 
0.48668971606663297

>  <source_stage>  (186) 
scored

>  <source_iter>  (186) 
11

>  <source_parent_mol>  (186) 
0

>  <source_scenario>  (186) 
1 2 3 1 0 2 3 4 0 3 0

>  <source_rank_in_scored_call>  (186) 
72

>  <source_current_task>  (186) 
no_task

>  <scenario>  (186) 
1 2 3 1 0 2 3 4 0 3

>  <protected_ring_attachments>  (186) 
3,1,0,2|1,0,2;4,5,0,2|5,0,2;9,8,7,2|8,7,2;11,12,7,2|12,7,2

>  <current_task>  (186) 
no_task

>  <rotatable_bond_torsions>  (186) 
1,0,2,7;0,2,7,8

$$$$

     RDKit          3D

 14 15  0  0  0  0  0  0  0  0999 V2000
  -27.6690   -6.9780  -30.5220 C   0  0  0  0  0  0  0  0  0  0  0  0
  -27.3900   -7.0840  -31.8540 N   0  0  0  0  0  0  0  0  0  0  0  0
  -27.0050   -7.8910  -29.5300 N   0  0  0  0  0  0  0  0  0  0  0  0
  -28.0830   -6.1370  -32.5100 C   0  0  0  0  0  0  0  0  0  0  0  0
  -28.7870   -5.4490  -31.5690 N   0  0  0  0  0  0  0  0  0  0  0  0
  -28.5360   -5.9580  -30.3790 N   0  0  0  0  0  0  0  0  0  0  0  0
  -28.8000   -5.5080  -28.9860 C   0  0  0  0  0  0  0  0  0  0  0  0
  -27.8500   -9.0170  -28.8910 C   0  0  0  0  0  0  0  0  0  0  0  0
  -29.1830   -9.1300  -29.2570 C   0  0  0  0  0  0  0  0  0  0  0  0
  -29.9510  -10.0990  -28.6030 C   0  0  0  0  0  0  0  0  0  0  0  0
  -29.4110  -10.9130  -27.6320 C   0  0  0  0  0  0  0  0  0  0  0  0
  -28.0750  -10.8010  -27.2630 C   0  0  0  0  0  0  0  0  0  0  0  0
  -27.3240   -9.8430  -27.9130 C   0  0  0  0  0  0  0  0  0  0  0  0
  -28.8310   -3.8970  -28.7510 C   0  0  0  0  0  0  0  0  0  0  0  0
  1  2  2  0
  1  6  1  0
  1  3  1  0
  2  4  1  0
  3  8  1  0
  4  5  2  0
  5  6  1  0
  6  7  1  0
  8  9  2  0
  8 13  1  0
  9 10  1  0
 10 11  2  0
 11 12  1  0
 12 13  2  0
  7 14  1  0
M  END
>  <name>  (187) 
Car Nac Nd0 Car Nac Nac Cs3 Car Car Car Car Car Car Cs3

>  <indices>  (187) 
[0, 1, 2]

>  <tasks>  (187) 
probe_placing close_aromatic_ring close_aromatic_ring close_aromatic_ring ring_built build_to_Nac build_to_Nd0 close_aromatic_ring close_aromatic_ring close_aromatic_ring close_aromatic_ring close_aromatic_ring

>  <prot_clashes>  (187) 
6

>  <NBS phar>  (187) 
0.1

>  <NBS_non-phar>  (187) 
0.3374792848314558

>  <NBS>  (187) 
0.4374792848314558

>  <source_stage>  (187) 
scored

>  <source_iter>  (187) 
11

>  <source_parent_mol>  (187) 
0

>  <source_scenario>  (187) 
1 2 3 1 0 2 3 4 0 3 0

>  <source_rank_in_scored_call>  (187) 
74

>  <source_current_task>  (187) 
no_task

>  <scenario>  (187) 
1 2 3 1 0 2 3 4 0 3

>  <protected_ring_attachments>  (187) 
3,1,0,2|1,0,2;4,5,0,2|5,0,2;9,8,7,2|8,7,2;11,12,7,2|12,7,2

>  <current_task>  (187) 
no_task

>  <rotatable_bond_torsions>  (187) 
1,0,2,7;0,2,7,8

$$$$

     RDKit          3D

 14 15  0  0  0  0  0  0  0  0999 V2000
  -27.7210   -7.0950  -30.3860 C   0  0  0  0  0  0  0  0  0  0  0  0
  -27.4190   -7.1560  -31.7160 N   0  0  0  0  0  0  0  0  0  0  0  0
  -27.1260   -8.0840  -29.4240 N   0  0  0  0  0  0  0  0  0  0  0  0
  -28.0500   -6.1470  -32.3410 C   0  0  0  0  0  0  0  0  0  0  0  0
  -28.7380   -5.4650  -31.3840 N   0  0  0  0  0  0  0  0  0  0  0  0
  -28.5380   -6.0390  -30.2130 N   0  0  0  0  0  0  0  0  0  0  0  0
  -28.8080   -5.6370  -28.8070 C   0  0  0  0  0  0  0  0  0  0  0  0
  -28.0410   -9.1910  -28.8530 C   0  0  0  0  0  0  0  0  0  0  0  0
  -29.3690   -9.2180  -29.2480 C   0  0  0  0  0  0  0  0  0  0  0  0
  -30.2000  -10.1750  -28.6530 C   0  0  0  0  0  0  0  0  0  0  0  0
  -29.7230  -11.0570  -27.7090 C   0  0  0  0  0  0  0  0  0  0  0  0
  -28.3910  -11.0310  -27.3100 C   0  0  0  0  0  0  0  0  0  0  0  0
  -27.5790  -10.0860  -27.9020 C   0  0  0  0  0  0  0  0  0  0  0  0
  -29.0910   -4.0700  -28.8140 C   0  0  0  0  0  0  0  0  0  0  0  0
  1  2  2  0
  1  6  1  0
  1  3  1  0
  2  4  1  0
  3  8  1  0
  4  5  2  0
  5  6  1  0
  6  7  1  0
  8  9  2  0
  8 13  1  0
  9 10  1  0
 10 11  2  0
 11 12  1  0
 12 13  2  0
  7 14  1  0
M  END
>  <name>  (188) 
Car Nac Nd0 Car Nac Nac Cs3 Car Car Car Car Car Car Cs3

>  <indices>  (188) 
[0, 1, 2]

>  <tasks>  (188) 
probe_placing close_aromatic_ring close_aromatic_ring close_aromatic_ring ring_built build_to_Nac build_to_Nd0 close_aromatic_ring close_aromatic_ring close_aromatic_ring close_aromatic_ring close_aromatic_ring

>  <prot_clashes>  (188) 
6

>  <NBS phar>  (188) 
0.04

>  <NBS_non-phar>  (188) 
0.32242039271763395

>  <NBS>  (188) 
0.36242039271763393

>  <source_stage>  (188) 
scored

>  <source_iter>  (188) 
11

>  <source_parent_mol>  (188) 
0

>  <source_scenario>  (188) 
1 2 3 1 0 2 3 4 0 3 0

>  <source_rank_in_scored_call>  (188) 
75

>  <source_current_task>  (188) 
no_task

>  <scenario>  (188) 
1 2 3 1 0 2 3 4 0 3

>  <protected_ring_attachments>  (188) 
3,1,0,2|1,0,2;4,5,0,2|5,0,2;9,8,7,2|8,7,2;11,12,7,2|12,7,2

>  <current_task>  (188) 
no_task

>  <rotatable_bond_torsions>  (188) 
1,0,2,7;0,2,7,8

$$$$

     RDKit          3D

 16 18  0  0  0  0  0  0  0  0999 V2000
  -27.7850   -7.6350  -31.1530 C   0  0  0  0  0  0  0  0  0  0  0  0
  -28.0350   -7.0200  -32.3460 N   0  0  0  0  0  0  0  0  0  0  0  0
  -27.2430   -9.0370  -31.1180 N   0  0  0  0  0  0  0  0  0  0  0  0
  -28.4770   -5.7760  -32.0980 C   0  0  0  0  0  0  0  0  0  0  0  0
  -28.4930   -5.6310  -30.7440 N   0  0  0  0  0  0  0  0  0  0  0  0
  -28.0780   -6.7500  -30.1820 N   0  0  0  0  0  0  0  0  0  0  0  0
  -27.6580   -7.1200  -28.8040 C   0  0  0  0  0  0  0  0  0  0  0  0
  -28.2950  -10.1210  -30.6750 C   0  0  0  0  0  0  0  0  0  0  0  0
  -29.6230  -10.0140  -30.2960 C   0  0  0  0  0  0  0  0  0  0  0  0
  -30.3250  -11.1240  -29.8560 C   0  0  0  0  0  0  0  0  0  0  0  0
  -29.7490  -12.3750  -29.7710 C   0  0  0  0  0  0  0  0  0  0  0  0
  -28.4240  -12.4720  -30.1520 C   0  0  0  0  0  0  0  0  0  0  0  0
  -27.6970  -11.3760  -30.5980 C   0  0  0  0  0  0  0  0  0  0  0  0
  -30.6600  -13.1960  -29.3260 O   0  0  0  0  0  0  0  0  0  0  0  0
  -31.8030  -12.5920  -29.1050 C   0  0  0  0  0  0  0  0  0  0  0  0
  -31.6360  -11.2420  -29.4350 C   0  0  0  0  0  0  0  0  0  0  0  0
  8  3  1  0
  8 13  1  0
  8  9  2  0
  9 10  1  0
 10 11  2  0
 10 16  1  0
 11 12  1  0
 11 14  1  0
 12 13  2  0
 14 15  1  0
 15 16  2  0
  1  2  2  0
  1  3  1  0
  1  6  1  0
  2  4  1  0
  4  5  2  0
  5  6  1  0
  6  7  1  0
M  END
>  <name>  (189) 
Car Nac Nd0 Car Nac Nac Cs3 Car Car Car Car Car Car O_a Car Car

>  <indices>  (189) 
[0, 1, 2]

>  <tasks>  (189) 
probe_placing close_aromatic_ring close_aromatic_ring close_aromatic_ring ring_built build_to_Nac build_to_Nd0 close_aromatic_ring close_aromatic_ring close_aromatic_ring close_aromatic_ring close_aromatic_ring no_task build_to_O_a

>  <prot_clashes>  (189) 
9

>  <NBS phar>  (189) 
0.36000000000000004

>  <NBS_non-phar>  (189) 
0.4834930896759033

>  <NBS>  (189) 
0.8434930896759034

>  <source_stage>  (189) 
scored

>  <source_iter>  (189) 
13

>  <source_parent_mol>  (189) 
3

>  <source_scenario>  (189) 
1 2 3 1 0 2 3 4 0 3 0 4 3

>  <source_rank_in_scored_call>  (189) 
2

>  <source_current_task>  (189) 
close_aromatic_ring

>  <scenario>  (189) 
1 2 3 1 0 2 3 4 0 3 0 4

>  <protected_ring_attachments>  (189) 
3,1,0,2|1,0,2;4,5,0,2|5,0,2;8,9,10,13|9,10,13;9,8,7,2|8,7,2;11,12,7,2|12,7,2;12,11,10,13|11,10,13

>  <current_task>  (189) 
no_task

>  <rotatable_bond_torsions>  (189) 
1,0,2,7;0,2,7,8;9,10,13,14

$$$$

     RDKit          3D

 15 16  0  0  0  0  0  0  0  0999 V2000
  -27.7940   -7.4500  -31.1960 C   0  0  0  0  0  0  0  0  0  0  0  0
  -28.0170   -7.0060  -32.4670 N   0  0  0  0  0  0  0  0  0  0  0  0
  -27.2790   -8.8410  -30.9550 N   0  0  0  0  0  0  0  0  0  0  0  0
  -28.4380   -5.7310  -32.4040 C   0  0  0  0  0  0  0  0  0  0  0  0
  -28.4680   -5.3970  -31.0850 N   0  0  0  0  0  0  0  0  0  0  0  0
  -28.0820   -6.4320  -30.3640 N   0  0  0  0  0  0  0  0  0  0  0  0
  -27.6880   -6.6120  -28.9420 C   0  0  0  0  0  0  0  0  0  0  0  0
  -28.2580   -9.8970  -30.3920 C   0  0  0  0  0  0  0  0  0  0  0  0
  -29.5630   -9.5120  -30.1280 C   0  0  0  0  0  0  0  0  0  0  0  0
  -30.4090  -10.4580  -29.5370 C   0  0  0  0  0  0  0  0  0  0  0  0
  -29.9670  -11.7250  -29.2270 C   0  0  0  0  0  0  0  0  0  0  0  0
  -28.6570  -12.1130  -29.4900 C   0  0  0  0  0  0  0  0  0  0  0  0
  -27.8300  -11.1740  -30.0720 C   0  0  0  0  0  0  0  0  0  0  0  0
  -28.2060  -13.3780  -29.1820 O   0  0  0  0  0  0  0  0  0  0  0  0
  -27.9420  -13.6740  -27.8360 C   0  0  0  0  0  0  0  0  0  0  0  0
  1  2  2  0
  1  3  1  0
  1  6  1  0
  2  4  1  0
  3  8  1  0
  4  5  2  0
  5  6  1  0
  6  7  1  0
  8  9  2  0
  8 13  1  0
  9 10  1  0
 10 11  2  0
 11 12  1  0
 12 13  2  0
 12 14  1  0
 14 15  1  0
M  END
>  <name>  (190) 
Car Nac Nd0 Car Nac Nac Cs3 Car Car Car Car Car Car O_a Cs3

>  <indices>  (190) 
[0, 1, 2]

>  <tasks>  (190) 
probe_placing close_aromatic_ring close_aromatic_ring close_aromatic_ring ring_built build_to_Nac build_to_Nd0 close_aromatic_ring close_aromatic_ring close_aromatic_ring close_aromatic_ring close_aromatic_ring no_task

>  <prot_clashes>  (190) 
11

>  <NBS phar>  (190) 
0.26000000000000006

>  <NBS_non-phar>  (190) 
0.6086411158243815

>  <NBS>  (190) 
0.8686411158243816

>  <source_stage>  (190) 
scored

>  <source_iter>  (190) 
12

>  <source_parent_mol>  (190) 
9

>  <source_scenario>  (190) 
1 2 3 1 0 2 3 4 0 3 0 9

>  <source_rank_in_scored_call>  (190) 
7

>  <source_current_task>  (190) 
build_to_O_a

>  <scenario>  (190) 
1 2 3 1 0 2 3 4 0 3 0

>  <protected_ring_attachments>  (190) 
3,1,0,2|1,0,2;4,5,0,2|5,0,2;7,12,11,13|12,11,13;9,8,7,2|8,7,2;9,10,11,13|10,11,13;11,12,7,2|12,7,2

>  <current_task>  (190) 
no_task

>  <rotatable_bond_torsions>  (190) 
1,0,2,7;0,2,7,8

$$$$

     RDKit          3D

 15 16  0  0  0  0  0  0  0  0999 V2000
  -27.7940   -7.4500  -31.1960 C   0  0  0  0  0  0  0  0  0  0  0  0
  -28.0170   -7.0060  -32.4670 N   0  0  0  0  0  0  0  0  0  0  0  0
  -27.2790   -8.8410  -30.9550 N   0  0  0  0  0  0  0  0  0  0  0  0
  -28.4380   -5.7310  -32.4040 C   0  0  0  0  0  0  0  0  0  0  0  0
  -28.4690   -5.3970  -31.0850 N   0  0  0  0  0  0  0  0  0  0  0  0
  -28.0820   -6.4320  -30.3640 N   0  0  0  0  0  0  0  0  0  0  0  0
  -27.6880   -6.6110  -28.9420 C   0  0  0  0  0  0  0  0  0  0  0  0
  -28.2580   -9.8970  -30.3910 C   0  0  0  0  0  0  0  0  0  0  0  0
  -29.5630   -9.5120  -30.1270 C   0  0  0  0  0  0  0  0  0  0  0  0
  -30.4080  -10.4580  -29.5350 C   0  0  0  0  0  0  0  0  0  0  0  0
  -29.9670  -11.7250  -29.2250 C   0  0  0  0  0  0  0  0  0  0  0  0
  -28.6570  -12.1130  -29.4880 C   0  0  0  0  0  0  0  0  0  0  0  0
  -27.8300  -11.1740  -30.0710 C   0  0  0  0  0  0  0  0  0  0  0  0
  -28.2060  -13.3770  -29.1790 O   0  0  0  0  0  0  0  0  0  0  0  0
  -28.4860  -14.3950  -30.1730 C   0  0  0  0  0  0  0  0  0  0  0  0
  1  2  2  0
  1  3  1  0
  1  6  1  0
  2  4  1  0
  3  8  1  0
  4  5  2  0
  5  6  1  0
  6  7  1  0
  8  9  2  0
  8 13  1  0
  9 10  1  0
 10 11  2  0
 11 12  1  0
 12 13  2  0
 12 14  1  0
 14 15  1  0
M  END
>  <name>  (191) 
Car Nac Nd0 Car Nac Nac Cs3 Car Car Car Car Car Car O_a Cs3

>  <indices>  (191) 
[0, 1, 2]

>  <tasks>  (191) 
probe_placing close_aromatic_ring close_aromatic_ring close_aromatic_ring ring_built build_to_Nac build_to_Nd0 close_aromatic_ring close_aromatic_ring close_aromatic_ring close_aromatic_ring close_aromatic_ring no_task

>  <prot_clashes>  (191) 
11

>  <NBS phar>  (191) 
0.26000000000000006

>  <NBS_non-phar>  (191) 
0.6056041717529297

>  <NBS>  (191) 
0.8656041717529297

>  <source_stage>  (191) 
scored

>  <source_iter>  (191) 
12

>  <source_parent_mol>  (191) 
9

>  <source_scenario>  (191) 
1 2 3 1 0 2 3 4 0 3 0 9

>  <source_rank_in_scored_call>  (191) 
12

>  <source_current_task>  (191) 
build_to_O_a

>  <scenario>  (191) 
1 2 3 1 0 2 3 4 0 3 0

>  <protected_ring_attachments>  (191) 
3,1,0,2|1,0,2;4,5,0,2|5,0,2;7,12,11,13|12,11,13;9,8,7,2|8,7,2;9,10,11,13|10,11,13;11,12,7,2|12,7,2

>  <current_task>  (191) 
no_task

>  <rotatable_bond_torsions>  (191) 
1,0,2,7;0,2,7,8

$$$$

     RDKit          3D

 15 16  0  0  0  0  0  0  0  0999 V2000
  -27.7940   -7.4500  -31.1960 C   0  0  0  0  0  0  0  0  0  0  0  0
  -28.0170   -7.0060  -32.4670 N   0  0  0  0  0  0  0  0  0  0  0  0
  -27.2790   -8.8410  -30.9550 N   0  0  0  0  0  0  0  0  0  0  0  0
  -28.4380   -5.7310  -32.4040 C   0  0  0  0  0  0  0  0  0  0  0  0
  -28.4690   -5.3970  -31.0850 N   0  0  0  0  0  0  0  0  0  0  0  0
  -28.0820   -6.4320  -30.3640 N   0  0  0  0  0  0  0  0  0  0  0  0
  -27.6880   -6.6110  -28.9420 C   0  0  0  0  0  0  0  0  0  0  0  0
  -28.2580   -9.8970  -30.3910 C   0  0  0  0  0  0  0  0  0  0  0  0
  -29.5630   -9.5120  -30.1280 C   0  0  0  0  0  0  0  0  0  0  0  0
  -30.4080  -10.4580  -29.5360 C   0  0  0  0  0  0  0  0  0  0  0  0
  -29.9670  -11.7250  -29.2260 C   0  0  0  0  0  0  0  0  0  0  0  0
  -28.6570  -12.1130  -29.4890 C   0  0  0  0  0  0  0  0  0  0  0  0
  -27.8300  -11.1740  -30.0710 C   0  0  0  0  0  0  0  0  0  0  0  0
  -28.2060  -13.3770  -29.1810 O   0  0  0  0  0  0  0  0  0  0  0  0
  -27.5200  -13.4960  -27.9090 C   0  0  0  0  0  0  0  0  0  0  0  0
  1  2  2  0
  1  3  1  0
  1  6  1  0
  2  4  1  0
  3  8  1  0
  4  5  2  0
  5  6  1  0
  6  7  1  0
  8  9  2  0
  8 13  1  0
  9 10  1  0
 10 11  2  0
 11 12  1  0
 12 13  2  0
 12 14  1  0
 14 15  1  0
M  END
>  <name>  (192) 
Car Nac Nd0 Car Nac Nac Cs3 Car Car Car Car Car Car O_a Cs3

>  <indices>  (192) 
[0, 1, 2]

>  <tasks>  (192) 
probe_placing close_aromatic_ring close_aromatic_ring close_aromatic_ring ring_built build_to_Nac build_to_Nd0 close_aromatic_ring close_aromatic_ring close_aromatic_ring close_aromatic_ring close_aromatic_ring no_task

>  <prot_clashes>  (192) 
11

>  <NBS phar>  (192) 
0.26000000000000006

>  <NBS_non-phar>  (192) 
0.6044883092244466

>  <NBS>  (192) 
0.8644883092244466

>  <source_stage>  (192) 
scored

>  <source_iter>  (192) 
12

>  <source_parent_mol>  (192) 
9

>  <source_scenario>  (192) 
1 2 3 1 0 2 3 4 0 3 0 9

>  <source_rank_in_scored_call>  (192) 
13

>  <source_current_task>  (192) 
build_to_O_a

>  <scenario>  (192) 
1 2 3 1 0 2 3 4 0 3 0

>  <protected_ring_attachments>  (192) 
3,1,0,2|1,0,2;4,5,0,2|5,0,2;7,12,11,13|12,11,13;9,8,7,2|8,7,2;9,10,11,13|10,11,13;11,12,7,2|12,7,2

>  <current_task>  (192) 
no_task

>  <rotatable_bond_torsions>  (192) 
1,0,2,7;0,2,7,8

$$$$

     RDKit          3D

 15 16  0  0  0  0  0  0  0  0999 V2000
  -27.7940   -7.4500  -31.1960 C   0  0  0  0  0  0  0  0  0  0  0  0
  -28.0170   -7.0060  -32.4670 N   0  0  0  0  0  0  0  0  0  0  0  0
  -27.2790   -8.8410  -30.9540 N   0  0  0  0  0  0  0  0  0  0  0  0
  -28.4380   -5.7310  -32.4050 C   0  0  0  0  0  0  0  0  0  0  0  0
  -28.4690   -5.3970  -31.0860 N   0  0  0  0  0  0  0  0  0  0  0  0
  -28.0820   -6.4320  -30.3640 N   0  0  0  0  0  0  0  0  0  0  0  0
  -27.6880   -6.6100  -28.9420 C   0  0  0  0  0  0  0  0  0  0  0  0
  -28.2580   -9.8970  -30.3900 C   0  0  0  0  0  0  0  0  0  0  0  0
  -29.5630   -9.5120  -30.1270 C   0  0  0  0  0  0  0  0  0  0  0  0
  -30.4080  -10.4570  -29.5350 C   0  0  0  0  0  0  0  0  0  0  0  0
  -29.9660  -11.7240  -29.2240 C   0  0  0  0  0  0  0  0  0  0  0  0
  -28.6560  -12.1130  -29.4870 C   0  0  0  0  0  0  0  0  0  0  0  0
  -27.8300  -11.1740  -30.0700 C   0  0  0  0  0  0  0  0  0  0  0  0
  -28.2060  -13.3760  -29.1790 O   0  0  0  0  0  0  0  0  0  0  0  0
  -28.0360  -14.2940  -30.2170 C   0  0  0  0  0  0  0  0  0  0  0  0
  1  2  2  0
  1  3  1  0
  1  6  1  0
  2  4  1  0
  3  8  1  0
  4  5  2  0
  5  6  1  0
  6  7  1  0
  8  9  2  0
  8 13  1  0
  9 10  1  0
 10 11  2  0
 11 12  1  0
 12 13  2  0
 12 14  1  0
 14 15  1  0
M  END
>  <name>  (193) 
Car Nac Nd0 Car Nac Nac Cs3 Car Car Car Car Car Car O_a Cs3

>  <indices>  (193) 
[0, 1, 2]

>  <tasks>  (193) 
probe_placing close_aromatic_ring close_aromatic_ring close_aromatic_ring ring_built build_to_Nac build_to_Nd0 close_aromatic_ring close_aromatic_ring close_aromatic_ring close_aromatic_ring close_aromatic_ring no_task

>  <prot_clashes>  (193) 
11

>  <NBS phar>  (193) 
0.26000000000000006

>  <NBS_non-phar>  (193) 
0.6037040074666341

>  <NBS>  (193) 
0.8637040074666342

>  <source_stage>  (193) 
scored

>  <source_iter>  (193) 
12

>  <source_parent_mol>  (193) 
9

>  <source_scenario>  (193) 
1 2 3 1 0 2 3 4 0 3 0 9

>  <source_rank_in_scored_call>  (193) 
14

>  <source_current_task>  (193) 
build_to_O_a

>  <scenario>  (193) 
1 2 3 1 0 2 3 4 0 3 0

>  <protected_ring_attachments>  (193) 
3,1,0,2|1,0,2;4,5,0,2|5,0,2;7,12,11,13|12,11,13;9,8,7,2|8,7,2;9,10,11,13|10,11,13;11,12,7,2|12,7,2

>  <current_task>  (193) 
no_task

>  <rotatable_bond_torsions>  (193) 
1,0,2,7;0,2,7,8

$$$$

     RDKit          3D

 15 16  0  0  0  0  0  0  0  0999 V2000
  -27.7940   -7.4500  -31.1960 C   0  0  0  0  0  0  0  0  0  0  0  0
  -28.0170   -7.0060  -32.4670 N   0  0  0  0  0  0  0  0  0  0  0  0
  -27.2790   -8.8410  -30.9550 N   0  0  0  0  0  0  0  0  0  0  0  0
  -28.4380   -5.7310  -32.4040 C   0  0  0  0  0  0  0  0  0  0  0  0
  -28.4690   -5.3970  -31.0860 N   0  0  0  0  0  0  0  0  0  0  0  0
  -28.0820   -6.4320  -30.3640 N   0  0  0  0  0  0  0  0  0  0  0  0
  -27.6880   -6.6110  -28.9420 C   0  0  0  0  0  0  0  0  0  0  0  0
  -28.2580   -9.8970  -30.3910 C   0  0  0  0  0  0  0  0  0  0  0  0
  -29.5630   -9.5120  -30.1270 C   0  0  0  0  0  0  0  0  0  0  0  0
  -30.4080  -10.4580  -29.5350 C   0  0  0  0  0  0  0  0  0  0  0  0
  -29.9660  -11.7250  -29.2250 C   0  0  0  0  0  0  0  0  0  0  0  0
  -28.6560  -12.1130  -29.4870 C   0  0  0  0  0  0  0  0  0  0  0  0
  -27.8300  -11.1740  -30.0700 C   0  0  0  0  0  0  0  0  0  0  0  0
  -28.2050  -13.3770  -29.1790 O   0  0  0  0  0  0  0  0  0  0  0  0
  -28.0130  -14.1390  -30.3610 C   0  0  0  0  0  0  0  0  0  0  0  0
  1  2  2  0
  1  3  1  0
  1  6  1  0
  2  4  1  0
  3  8  1  0
  4  5  2  0
  5  6  1  0
  6  7  1  0
  8  9  2  0
  8 13  1  0
  9 10  1  0
 10 11  2  0
 11 12  1  0
 12 13  2  0
 12 14  1  0
 14 15  1  0
M  END
>  <name>  (194) 
Car Nac Nd0 Car Nac Nac Cs3 Car Car Car Car Car Car O_a Cs3

>  <indices>  (194) 
[0, 1, 2]

>  <tasks>  (194) 
probe_placing close_aromatic_ring close_aromatic_ring close_aromatic_ring ring_built build_to_Nac build_to_Nd0 close_aromatic_ring close_aromatic_ring close_aromatic_ring close_aromatic_ring close_aromatic_ring no_task

>  <prot_clashes>  (194) 
11

>  <NBS phar>  (194) 
0.26000000000000006

>  <NBS_non-phar>  (194) 
0.6021223068237305

>  <NBS>  (194) 
0.8621223068237305

>  <source_stage>  (194) 
scored

>  <source_iter>  (194) 
12

>  <source_parent_mol>  (194) 
9

>  <source_scenario>  (194) 
1 2 3 1 0 2 3 4 0 3 0 9

>  <source_rank_in_scored_call>  (194) 
15

>  <source_current_task>  (194) 
build_to_O_a

>  <scenario>  (194) 
1 2 3 1 0 2 3 4 0 3 0

>  <protected_ring_attachments>  (194) 
3,1,0,2|1,0,2;4,5,0,2|5,0,2;7,12,11,13|12,11,13;9,8,7,2|8,7,2;9,10,11,13|10,11,13;11,12,7,2|12,7,2

>  <current_task>  (194) 
no_task

>  <rotatable_bond_torsions>  (194) 
1,0,2,7;0,2,7,8

$$$$

     RDKit          3D

 15 16  0  0  0  0  0  0  0  0999 V2000
  -27.7940   -7.4500  -31.1960 C   0  0  0  0  0  0  0  0  0  0  0  0
  -28.0170   -7.0070  -32.4670 N   0  0  0  0  0  0  0  0  0  0  0  0
  -27.2790   -8.8410  -30.9540 N   0  0  0  0  0  0  0  0  0  0  0  0
  -28.4380   -5.7320  -32.4050 C   0  0  0  0  0  0  0  0  0  0  0  0
  -28.4680   -5.3970  -31.0860 N   0  0  0  0  0  0  0  0  0  0  0  0
  -28.0820   -6.4310  -30.3650 N   0  0  0  0  0  0  0  0  0  0  0  0
  -27.6880   -6.6100  -28.9420 C   0  0  0  0  0  0  0  0  0  0  0  0
  -28.2580   -9.8960  -30.3900 C   0  0  0  0  0  0  0  0  0  0  0  0
  -29.5630   -9.5110  -30.1260 C   0  0  0  0  0  0  0  0  0  0  0  0
  -30.4090  -10.4570  -29.5340 C   0  0  0  0  0  0  0  0  0  0  0  0
  -29.9670  -11.7240  -29.2230 C   0  0  0  0  0  0  0  0  0  0  0  0
  -28.6570  -12.1120  -29.4860 C   0  0  0  0  0  0  0  0  0  0  0  0
  -27.8300  -11.1730  -30.0690 C   0  0  0  0  0  0  0  0  0  0  0  0
  -28.2060  -13.3760  -29.1770 O   0  0  0  0  0  0  0  0  0  0  0  0
  -29.0710  -14.3160  -28.5870 C   0  0  0  0  0  0  0  0  0  0  0  0
  1  2  2  0
  1  3  1  0
  1  6  1  0
  2  4  1  0
  3  8  1  0
  4  5  2  0
  5  6  1  0
  6  7  1  0
  8  9  2  0
  8 13  1  0
  9 10  1  0
 10 11  2  0
 11 12  1  0
 12 13  2  0
 12 14  1  0
 14 15  1  0
M  END
>  <name>  (195) 
Car Nac Nd0 Car Nac Nac Cs3 Car Car Car Car Car Car O_a Cs3

>  <indices>  (195) 
[0, 1, 2]

>  <tasks>  (195) 
probe_placing close_aromatic_ring close_aromatic_ring close_aromatic_ring ring_built build_to_Nac build_to_Nd0 close_aromatic_ring close_aromatic_ring close_aromatic_ring close_aromatic_ring close_aromatic_ring no_task

>  <prot_clashes>  (195) 
11

>  <NBS phar>  (195) 
0.26000000000000006

>  <NBS_non-phar>  (195) 
0.5665343602498373

>  <NBS>  (195) 
0.8265343602498374

>  <source_stage>  (195) 
scored

>  <source_iter>  (195) 
12

>  <source_parent_mol>  (195) 
9

>  <source_scenario>  (195) 
1 2 3 1 0 2 3 4 0 3 0 9

>  <source_rank_in_scored_call>  (195) 
27

>  <source_current_task>  (195) 
build_to_O_a

>  <scenario>  (195) 
1 2 3 1 0 2 3 4 0 3 0

>  <protected_ring_attachments>  (195) 
3,1,0,2|1,0,2;4,5,0,2|5,0,2;7,12,11,13|12,11,13;9,8,7,2|8,7,2;9,10,11,13|10,11,13;11,12,7,2|12,7,2

>  <current_task>  (195) 
no_task

>  <rotatable_bond_torsions>  (195) 
1,0,2,7;0,2,7,8

$$$$

     RDKit          3D

 15 16  0  0  0  0  0  0  0  0999 V2000
  -27.7980   -7.4640  -31.1940 C   0  0  0  0  0  0  0  0  0  0  0  0
  -28.0360   -7.0010  -32.4560 N   0  0  0  0  0  0  0  0  0  0  0  0
  -27.2990   -8.8640  -30.9780 N   0  0  0  0  0  0  0  0  0  0  0  0
  -28.4380   -5.7210  -32.3710 C   0  0  0  0  0  0  0  0  0  0  0  0
  -28.4430   -5.4030  -31.0480 N   0  0  0  0  0  0  0  0  0  0  0  0
  -28.0600   -6.4520  -30.3450 N   0  0  0  0  0  0  0  0  0  0  0  0
  -27.6470   -6.6540  -28.9320 C   0  0  0  0  0  0  0  0  0  0  0  0
  -28.2840   -9.9140  -30.4120 C   0  0  0  0  0  0  0  0  0  0  0  0
  -29.5790   -9.5150  -30.1230 C   0  0  0  0  0  0  0  0  0  0  0  0
  -30.4280  -10.4560  -29.5300 C   0  0  0  0  0  0  0  0  0  0  0  0
  -29.9980  -11.7330  -29.2420 C   0  0  0  0  0  0  0  0  0  0  0  0
  -28.6980  -12.1350  -29.5300 C   0  0  0  0  0  0  0  0  0  0  0  0
  -27.8680  -11.2010  -30.1140 C   0  0  0  0  0  0  0  0  0  0  0  0
  -28.2600  -13.4090  -29.2440 O   0  0  0  0  0  0  0  0  0  0  0  0
  -26.9380  -13.7910  -29.5400 C   0  0  0  0  0  0  0  0  0  0  0  0
  1  2  2  0
  1  3  1  0
  1  6  1  0
  2  4  1  0
  3  8  1  0
  4  5  2  0
  5  6  1  0
  6  7  1  0
  8  9  2  0
  8 13  1  0
  9 10  1  0
 10 11  2  0
 11 12  1  0
 12 13  2  0
 12 14  1  0
 14 15  1  0
M  END
>  <name>  (196) 
Car Nac Nd0 Car Nac Nac Cs3 Car Car Car Car Car Car O_a Cs3

>  <indices>  (196) 
[0, 1, 2]

>  <tasks>  (196) 
probe_placing close_aromatic_ring close_aromatic_ring close_aromatic_ring ring_built build_to_Nac build_to_Nd0 close_aromatic_ring close_aromatic_ring close_aromatic_ring close_aromatic_ring close_aromatic_ring no_task

>  <prot_clashes>  (196) 
11

>  <NBS phar>  (196) 
0.26000000000000006

>  <NBS_non-phar>  (196) 
0.5355985005696614

>  <NBS>  (196) 
0.7955985005696615

>  <source_stage>  (196) 
scored

>  <source_iter>  (196) 
12

>  <source_parent_mol>  (196) 
9

>  <source_scenario>  (196) 
1 2 3 1 0 2 3 4 0 3 0 9

>  <source_rank_in_scored_call>  (196) 
36

>  <source_current_task>  (196) 
build_to_O_a

>  <scenario>  (196) 
1 2 3 1 0 2 3 4 0 3 0

>  <protected_ring_attachments>  (196) 
3,1,0,2|1,0,2;4,5,0,2|5,0,2;7,12,11,13|12,11,13;9,8,7,2|8,7,2;9,10,11,13|10,11,13;11,12,7,2|12,7,2

>  <current_task>  (196) 
no_task

>  <rotatable_bond_torsions>  (196) 
1,0,2,7;0,2,7,8

$$$$

     RDKit          3D

 13 14  0  0  0  0  0  0  0  0999 V2000
  -27.7980   -7.3950  -31.1820 C   0  0  0  0  0  0  0  0  0  0  0  0
  -28.0150   -6.8800  -32.4270 N   0  0  0  0  0  0  0  0  0  0  0  0
  -27.3050   -8.8020  -31.0170 N   0  0  0  0  0  0  0  0  0  0  0  0
  -28.4170   -5.6030  -32.2960 C   0  0  0  0  0  0  0  0  0  0  0  0
  -28.4430   -5.3380  -30.9610 N   0  0  0  0  0  0  0  0  0  0  0  0
  -28.0710   -6.4170  -30.2970 N   0  0  0  0  0  0  0  0  0  0  0  0
  -27.6800   -6.6790  -28.8860 C   0  0  0  0  0  0  0  0  0  0  0  0
  -28.2730   -9.7320  -30.4010 C   0  0  0  0  0  0  0  0  0  0  0  0
  -29.5170   -9.2970  -29.9660 C   0  0  0  0  0  0  0  0  0  0  0  0
  -30.4010  -10.2340  -29.4630 C   0  0  0  0  0  0  0  0  0  0  0  0
  -30.0320  -11.5560  -29.4070 C   0  0  0  0  0  0  0  0  0  0  0  0
  -28.7950  -11.9830  -29.8400 C   0  0  0  0  0  0  0  0  0  0  0  0
  -27.9090  -11.0540  -30.3410 C   0  0  0  0  0  0  0  0  0  0  0  0
  1  2  2  0
  1  3  1  0
  1  6  1  0
  2  4  1  0
  3  8  1  0
  4  5  2  0
  5  6  1  0
  6  7  1  0
  8 13  1  0
  8  9  2  0
  9 10  1  0
 10 11  2  0
 11 12  1  0
 12 13  2  0
M  END
>  <name>  (197) 
Car Nac Nd0 Car Nac Nac Cs3 Car Car Car Car Car Car

>  <indices>  (197) 
[0, 1, 2]

>  <tasks>  (197) 
probe_placing close_aromatic_ring close_aromatic_ring close_aromatic_ring ring_built build_to_Nac build_to_Nd0 close_aromatic_ring close_aromatic_ring close_aromatic_ring close_aromatic_ring

>  <prot_clashes>  (197) 
9

>  <NBS phar>  (197) 
0.24000000000000005

>  <NBS_non-phar>  (197) 
0.6098875632652869

>  <NBS>  (197) 
0.8498875632652869

>  <source_stage>  (197) 
scored

>  <source_iter>  (197) 
10

>  <source_parent_mol>  (197) 
1

>  <source_scenario>  (197) 
1 2 3 1 0 4 1 0 1 1

>  <source_rank_in_scored_call>  (197) 
0

>  <source_current_task>  (197) 
close_aromatic_ring

>  <scenario>  (197) 
1 2 3 1 0 4 1 0 1

>  <protected_ring_attachments>  (197) 
3,1,0,2|1,0,2;4,5,0,2|5,0,2

>  <current_task>  (197) 
no_task

>  <rotatable_bond_torsions>  (197) 
1,0,2,7;0,2,7,8;7,8,9,10

$$$$

     RDKit          3D

 12 13  0  0  0  0  0  0  0  0999 V2000
  -27.8430   -7.3590  -31.2680 C   0  0  0  0  0  0  0  0  0  0  0  0
  -27.8120   -6.8040  -32.5140 N   0  0  0  0  0  0  0  0  0  0  0  0
  -27.5600   -8.8240  -31.0830 N   0  0  0  0  0  0  0  0  0  0  0  0
  -28.0620   -5.4870  -32.3970 C   0  0  0  0  0  0  0  0  0  0  0  0
  -28.2460   -5.2420  -31.0710 N   0  0  0  0  0  0  0  0  0  0  0  0
  -28.1140   -6.3700  -30.3970 N   0  0  0  0  0  0  0  0  0  0  0  0
  -27.9660   -6.7010  -28.9550 C   0  0  0  0  0  0  0  0  0  0  0  0
  -28.6390   -9.8050  -30.9940 C   0  0  1  0  0  0  0  0  0  0  0  0
  -28.1520  -11.0650  -31.5980 C   0  0  0  0  0  0  0  0  0  0  0  0
  -28.9250  -12.1220  -31.1000 O   0  0  0  0  0  0  0  0  0  0  0  0
  -29.9410  -11.5800  -30.2810 C   0  0  0  0  0  0  0  0  0  0  0  0
  -29.5500  -10.2240  -29.9020 C   0  0  0  0  0  0  0  0  0  0  0  0
  1  2  2  0
  1  3  1  0
  1  6  1  0
  2  4  1  0
  8  3  1  1
  4  5  2  0
  5  6  1  0
  6  7  1  0
  8  9  1  0
  8 12  1  0
  9 10  1  0
 10 11  1  0
 11 12  1  0
M  END
>  <name>  (198) 
Car Nac Nd0 Car Nac Nac Cs3 C3r C3r O_a C3r C3r

>  <indices>  (198) 
[0, 1, 2]

>  <tasks>  (198) 
probe_placing close_aromatic_ring close_aromatic_ring close_aromatic_ring ring_built build_to_Nac build_to_Nd0 close_aliphatic_ring close_aliphatic_ring close_aliphatic_ring

>  <prot_clashes>  (198) 
5

>  <NBS phar>  (198) 
0.12

>  <NBS_non-phar>  (198) 
0.5446968078613281

>  <NBS>  (198) 
0.6646968078613281

>  <source_stage>  (198) 
scored

>  <source_iter>  (198) 
9

>  <source_parent_mol>  (198) 
1

>  <source_scenario>  (198) 
1 2 3 1 0 7 0 0 1

>  <source_rank_in_scored_call>  (198) 
3

>  <source_current_task>  (198) 
close_aliphatic_ring

>  <scenario>  (198) 
1 2 3 1 0 7 0 0

>  <protected_ring_attachments>  (198) 
3,1,0,2|1,0,2;4,5,0,2|5,0,2

>  <current_task>  (198) 
no_task

>  <rotatable_bond_torsions>  (198) 
1,0,2,7;0,2,7,8;2,7,8,9;7,8,9,10

$$$$

     RDKit          3D

 14 15  0  0  0  0  0  0  0  0999 V2000
  -27.8060   -7.8940  -31.2250 C   0  0  0  0  0  0  0  0  0  0  0  0
  -28.1680   -7.1680  -32.3220 N   0  0  0  0  0  0  0  0  0  0  0  0
  -27.3770   -9.3270  -31.3700 N   0  0  0  0  0  0  0  0  0  0  0  0
  -28.4680   -5.9190  -31.9240 C   0  0  0  0  0  0  0  0  0  0  0  0
  -28.2880   -5.8870  -30.5760 N   0  0  0  0  0  0  0  0  0  0  0  0
  -27.8910   -7.0770  -30.1600 N   0  0  0  0  0  0  0  0  0  0  0  0
  -27.3190   -7.5890  -28.8870 C   0  0  0  0  0  0  0  0  0  0  0  0
  -28.5740  -10.2780  -31.7310 C   0  0  1  0  0  0  0  0  0  0  0  0
  -27.7580  -11.5350  -31.7900 C   0  0  0  0  0  0  0  0  0  0  0  0
  -28.5560  -12.6500  -31.5990 O   0  0  0  0  0  0  0  0  0  0  0  0
  -29.2160  -12.6680  -30.3650 C   0  0  0  0  0  0  0  0  0  0  0  0
  -30.1180  -11.4570  -30.2300 C   0  0  0  0  0  0  0  0  0  0  0  0
  -29.2430  -10.2050  -30.3460 C   0  0  0  0  0  0  0  0  0  0  0  0
  -31.1850  -11.3500  -29.8430 O   0  0  0  0  0  0  0  0  0  0  0  0
  1  2  2  0
  1  3  1  0
  1  6  1  0
  2  4  1  0
  8  3  1  1
  4  5  2  0
  5  6  1  0
  6  7  1  0
  8  9  1  0
  8 13  1  0
  9 10  1  0
 10 11  1  0
 11 12  1  0
 12 13  1  0
 12 14  2  0
M  END
>  <name>  (199) 
Car Nac Nd0 Car Nac Nac Cs3 C3r C3r O_a C3r C2r C3r .=O

>  <indices>  (199) 
[0, 1, 2]

>  <tasks>  (199) 
probe_placing close_aromatic_ring close_aromatic_ring close_aromatic_ring ring_built build_to_Nac build_to_Nd0 close_aliphatic_ring close_aliphatic_ring close_aliphatic_ring close_aliphatic_ring close_aliphatic_ring

>  <prot_clashes>  (199) 
7

>  <NBS phar>  (199) 
0.38000000000000006

>  <NBS_non-phar>  (199) 
0.6300260680062431

>  <NBS>  (199) 
1.0100260680062432

>  <source_stage>  (199) 
scored

>  <source_iter>  (199) 
11

>  <source_parent_mol>  (199) 
0

>  <source_scenario>  (199) 
1 2 3 1 0 7 0 0 1 0 0

>  <source_rank_in_scored_call>  (199) 
0

>  <source_current_task>  (199) 
build_DB_to_Cs2

>  <scenario>  (199) 
1 2 3 1 0 7 0 0 1 0

>  <protected_ring_attachments>  (199) 
3,1,0,2|1,0,2;4,5,0,2|5,0,2;9,8,7,2|8,7,2;11,12,7,2|12,7,2

>  <current_task>  (199) 
no_task

>  <rotatable_bond_torsions>  (199) 
1,0,2,7;0,2,7,8

$$$$

     RDKit          3D

 15 16  0  0  0  0  0  0  0  0999 V2000
  -27.8750   -8.0750  -31.1340 C   0  0  0  0  0  0  0  0  0  0  0  0
  -28.2800   -7.2710  -32.1600 N   0  0  0  0  0  0  0  0  0  0  0  0
  -27.5560   -9.5220  -31.3830 N   0  0  0  0  0  0  0  0  0  0  0  0
  -28.4630   -6.0290  -31.6790 C   0  0  0  0  0  0  0  0  0  0  0  0
  -28.1680   -6.0790  -30.3520 N   0  0  0  0  0  0  0  0  0  0  0  0
  -27.8160   -7.3110  -30.0280 N   0  0  0  0  0  0  0  0  0  0  0  0
  -27.1740   -7.9230  -28.8360 C   0  0  0  0  0  0  0  0  0  0  0  0
  -28.8390  -10.3770  -31.6820 C   0  0  1  0  0  0  0  0  0  0  0  0
  -28.1150  -11.6770  -31.8710 C   0  0  0  0  0  0  0  0  0  0  0  0
  -28.9660  -12.7490  -31.6630 O   0  0  0  0  0  0  0  0  0  0  0  0
  -29.5190  -12.7910  -30.3780 C   0  0  0  0  0  0  0  0  0  0  0  0
  -30.3250  -11.5360  -30.1080 C   0  0  0  0  0  0  0  0  0  0  0  0
  -29.3820  -10.3360  -30.2410 C   0  0  0  0  0  0  0  0  0  0  0  0
  -31.3460  -11.3840  -29.6240 O   0  0  0  0  0  0  0  0  0  0  0  0
  -28.2750   -8.3490  -27.8540 C   0  0  0  0  0  0  0  0  0  0  0  0
  1  2  2  0
  1  3  1  0
  1  6  1  0
  2  4  1  0
  8  3  1  1
  4  5  2  0
  5  6  1  0
  6  7  1  0
  8  9  1  0
  8 13  1  0
  9 10  1  0
 10 11  1  0
 11 12  1  0
 12 13  1  0
 12 14  2  0
  7 15  1  0
M  END
>  <name>  (200) 
Car Nac Nd0 Car Nac Nac Cs3 C3r C3r O_a C3r C2r C3r .=O Cs3

>  <indices>  (200) 
[0, 1, 2]

>  <tasks>  (200) 
probe_placing close_aromatic_ring close_aromatic_ring close_aromatic_ring ring_built build_to_Nac build_to_Nd0 close_aliphatic_ring close_aliphatic_ring close_aliphatic_ring close_aliphatic_ring close_aliphatic_ring build_DB_to_Cs2

>  <prot_clashes>  (200) 
2

>  <NBS phar>  (200) 
0.33999999999999997

>  <NBS_non-phar>  (200) 
0.6889800389607748

>  <NBS>  (200) 
1.0289800389607748

>  <source_stage>  (200) 
scored

>  <source_iter>  (200) 
12

>  <source_parent_mol>  (200) 
0

>  <source_scenario>  (200) 
1 2 3 1 0 7 0 0 1 0 0 0

>  <source_rank_in_scored_call>  (200) 
5

>  <source_current_task>  (200) 
no_task

>  <scenario>  (200) 
1 2 3 1 0 7 0 0 1 0 0

>  <protected_ring_attachments>  (200) 
3,1,0,2|1,0,2;4,5,0,2|5,0,2;9,8,7,2|8,7,2;11,12,7,2|12,7,2

>  <current_task>  (200) 
no_task

>  <rotatable_bond_torsions>  (200) 
1,0,2,7;0,2,7,8

$$$$

     RDKit          3D

 15 16  0  0  0  0  0  0  0  0999 V2000
  -27.8170   -7.9470  -31.2200 C   0  0  0  0  0  0  0  0  0  0  0  0
  -28.1770   -7.2010  -32.3050 N   0  0  0  0  0  0  0  0  0  0  0  0
  -27.4130   -9.3850  -31.3870 N   0  0  0  0  0  0  0  0  0  0  0  0
  -28.4530   -5.9530  -31.8890 C   0  0  0  0  0  0  0  0  0  0  0  0
  -28.2600   -5.9400  -30.5420 N   0  0  0  0  0  0  0  0  0  0  0  0
  -27.8790   -7.1420  -30.1450 N   0  0  0  0  0  0  0  0  0  0  0  0
  -27.3040   -7.6790  -28.8830 C   0  0  0  0  0  0  0  0  0  0  0  0
  -28.6290  -10.3110  -31.7480 C   0  0  1  0  0  0  0  0  0  0  0  0
  -27.8350  -11.5810  -31.8310 C   0  0  0  0  0  0  0  0  0  0  0  0
  -28.6500  -12.6850  -31.6460 O   0  0  0  0  0  0  0  0  0  0  0  0
  -29.2980  -12.7070  -30.4060 C   0  0  0  0  0  0  0  0  0  0  0  0
  -30.1790  -11.4830  -30.2480 C   0  0  0  0  0  0  0  0  0  0  0  0
  -29.2840  -10.2450  -30.3560 C   0  0  0  0  0  0  0  0  0  0  0  0
  -31.2400  -11.3640  -29.8490 O   0  0  0  0  0  0  0  0  0  0  0  0
  -28.4390   -8.0590  -27.9710 C   0  0  0  0  0  0  0  0  0  0  0  0
  1  2  2  0
  1  3  1  0
  1  6  1  0
  2  4  1  0
  8  3  1  1
  4  5  2  0
  5  6  1  0
  6  7  1  0
  8  9  1  0
  8 13  1  0
  9 10  1  0
 10 11  1  0
 11 12  1  0
 12 13  1  0
 12 14  2  0
  7 15  1  0
M  END
>  <name>  (201) 
Car Nac Nd0 Car Nac Nac Cs3 C3r C3r O_a C3r C2r C3r .=O Cs3

>  <indices>  (201) 
[0, 1, 2]

>  <tasks>  (201) 
probe_placing close_aromatic_ring close_aromatic_ring close_aromatic_ring ring_built build_to_Nac build_to_Nd0 close_aliphatic_ring close_aliphatic_ring close_aliphatic_ring close_aliphatic_ring close_aliphatic_ring build_DB_to_Cs2

>  <prot_clashes>  (201) 
5

>  <NBS phar>  (201) 
0.36000000000000004

>  <NBS_non-phar>  (201) 
0.6392189661661783

>  <NBS>  (201) 
0.9992189661661783

>  <source_stage>  (201) 
scored

>  <source_iter>  (201) 
12

>  <source_parent_mol>  (201) 
0

>  <source_scenario>  (201) 
1 2 3 1 0 7 0 0 1 0 0 0

>  <source_rank_in_scored_call>  (201) 
11

>  <source_current_task>  (201) 
no_task

>  <scenario>  (201) 
1 2 3 1 0 7 0 0 1 0 0

>  <protected_ring_attachments>  (201) 
3,1,0,2|1,0,2;4,5,0,2|5,0,2;9,8,7,2|8,7,2;11,12,7,2|12,7,2

>  <current_task>  (201) 
no_task

>  <rotatable_bond_torsions>  (201) 
1,0,2,7;0,2,7,8

$$$$

     RDKit          3D

 15 16  0  0  0  0  0  0  0  0999 V2000
  -27.8760   -8.0550  -31.3290 C   0  0  0  0  0  0  0  0  0  0  0  0
  -28.1410   -7.3910  -32.4910 N   0  0  0  0  0  0  0  0  0  0  0  0
  -27.4230   -9.4880  -31.3590 N   0  0  0  0  0  0  0  0  0  0  0  0
  -28.4870   -6.1270  -32.1880 C   0  0  0  0  0  0  0  0  0  0  0  0
  -28.4330   -6.0240  -30.8330 N   0  0  0  0  0  0  0  0  0  0  0  0
  -28.0660   -7.1860  -30.3200 N   0  0  0  0  0  0  0  0  0  0  0  0
  -27.6100   -7.6250  -28.9750 C   0  0  0  0  0  0  0  0  0  0  0  0
  -28.5740  -10.4720  -31.7790 C   0  0  1  0  0  0  0  0  0  0  0  0
  -27.7450  -11.7190  -31.6970 C   0  0  0  0  0  0  0  0  0  0  0  0
  -28.5480  -12.8340  -31.5220 O   0  0  0  0  0  0  0  0  0  0  0  0
  -29.3190  -12.7970  -30.3550 C   0  0  0  0  0  0  0  0  0  0  0  0
  -30.2400  -11.5930  -30.3670 C   0  0  0  0  0  0  0  0  0  0  0  0
  -29.3680  -10.3370  -30.4670 C   0  0  0  0  0  0  0  0  0  0  0  0
  -31.3390  -11.4800  -30.0860 O   0  0  0  0  0  0  0  0  0  0  0  0
  -27.3460   -6.4590  -28.0170 C   0  0  0  0  0  0  0  0  0  0  0  0
  1  2  2  0
  1  3  1  0
  1  6  1  0
  2  4  1  0
  8  3  1  1
  4  5  2  0
  5  6  1  0
  6  7  1  0
  8  9  1  0
  8 13  1  0
  9 10  1  0
 10 11  1  0
 11 12  1  0
 12 13  1  0
 12 14  2  0
  7 15  1  0
M  END
>  <name>  (202) 
Car Nac Nd0 Car Nac Nac Cs3 C3r C3r O_a C3r C2r C3r .=O Cs3

>  <indices>  (202) 
[0, 1, 2]

>  <tasks>  (202) 
probe_placing close_aromatic_ring close_aromatic_ring close_aromatic_ring ring_built build_to_Nac build_to_Nd0 close_aliphatic_ring close_aliphatic_ring close_aliphatic_ring close_aliphatic_ring close_aliphatic_ring build_DB_to_Cs2

>  <prot_clashes>  (202) 
11

>  <NBS phar>  (202) 
0.4000000000000001

>  <NBS_non-phar>  (202) 
0.5782582600911458

>  <NBS>  (202) 
0.9782582600911458

>  <source_stage>  (202) 
scored

>  <source_iter>  (202) 
12

>  <source_parent_mol>  (202) 
0

>  <source_scenario>  (202) 
1 2 3 1 0 7 0 0 1 0 0 0

>  <source_rank_in_scored_call>  (202) 
17

>  <source_current_task>  (202) 
no_task

>  <scenario>  (202) 
1 2 3 1 0 7 0 0 1 0 0

>  <protected_ring_attachments>  (202) 
3,1,0,2|1,0,2;4,5,0,2|5,0,2;9,8,7,2|8,7,2;11,12,7,2|12,7,2

>  <current_task>  (202) 
no_task

>  <rotatable_bond_torsions>  (202) 
1,0,2,7;0,2,7,8

$$$$

     RDKit          3D

 15 16  0  0  0  0  0  0  0  0999 V2000
  -27.8450   -8.1540  -31.1180 C   0  0  0  0  0  0  0  0  0  0  0  0
  -28.3340   -7.3260  -32.0860 N   0  0  0  0  0  0  0  0  0  0  0  0
  -27.5600   -9.5970  -31.4250 N   0  0  0  0  0  0  0  0  0  0  0  0
  -28.4620   -6.0930  -31.5650 C   0  0  0  0  0  0  0  0  0  0  0  0
  -28.0490   -6.1730  -30.2710 N   0  0  0  0  0  0  0  0  0  0  0  0
  -27.6800   -7.4150  -30.0070 N   0  0  0  0  0  0  0  0  0  0  0  0
  -26.9370   -8.0560  -28.8900 C   0  0  0  0  0  0  0  0  0  0  0  0
  -28.8720  -10.4380  -31.6250 C   0  0  1  0  0  0  0  0  0  0  0  0
  -28.1800  -11.7380  -31.9050 C   0  0  0  0  0  0  0  0  0  0  0  0
  -29.0170  -12.8090  -31.6440 O   0  0  0  0  0  0  0  0  0  0  0  0
  -29.4520  -12.8750  -30.3160 C   0  0  0  0  0  0  0  0  0  0  0  0
  -30.2200  -11.6210  -29.9480 C   0  0  0  0  0  0  0  0  0  0  0  0
  -29.2830  -10.4240  -30.1410 C   0  0  0  0  0  0  0  0  0  0  0  0
  -31.1920  -11.4730  -29.3710 O   0  0  0  0  0  0  0  0  0  0  0  0
  -27.9140   -8.0790  -27.6780 C   0  0  0  0  0  0  0  0  0  0  0  0
  1  2  2  0
  1  3  1  0
  1  6  1  0
  2  4  1  0
  8  3  1  1
  4  5  2  0
  5  6  1  0
  6  7  1  0
  8  9  1  0
  8 13  1  0
  9 10  1  0
 10 11  1  0
 11 12  1  0
 12 13  1  0
 12 14  2  0
  7 15  1  0
M  END
>  <name>  (203) 
Car Nac Nd0 Car Nac Nac Cs3 C3r C3r O_a C3r C2r C3r .=O Cs3

>  <indices>  (203) 
[0, 1, 2]

>  <tasks>  (203) 
probe_placing close_aromatic_ring close_aromatic_ring close_aromatic_ring ring_built build_to_Nac build_to_Nd0 close_aliphatic_ring close_aliphatic_ring close_aliphatic_ring close_aliphatic_ring close_aliphatic_ring build_DB_to_Cs2

>  <prot_clashes>  (203) 
5

>  <NBS phar>  (203) 
0.27999999999999997

>  <NBS_non-phar>  (203) 
0.6504151662190755

>  <NBS>  (203) 
0.9304151662190754

>  <source_stage>  (203) 
scored

>  <source_iter>  (203) 
12

>  <source_parent_mol>  (203) 
0

>  <source_scenario>  (203) 
1 2 3 1 0 7 0 0 1 0 0 0

>  <source_rank_in_scored_call>  (203) 
30

>  <source_current_task>  (203) 
no_task

>  <scenario>  (203) 
1 2 3 1 0 7 0 0 1 0 0

>  <protected_ring_attachments>  (203) 
3,1,0,2|1,0,2;4,5,0,2|5,0,2;9,8,7,2|8,7,2;11,12,7,2|12,7,2

>  <current_task>  (203) 
no_task

>  <rotatable_bond_torsions>  (203) 
1,0,2,7;0,2,7,8

$$$$

     RDKit          3D

 15 16  0  0  0  0  0  0  0  0999 V2000
  -28.2110   -8.2440  -30.8790 C   0  0  0  0  0  0  0  0  0  0  0  0
  -28.3470   -7.5510  -32.0460 N   0  0  0  0  0  0  0  0  0  0  0  0
  -27.7120   -9.6620  -30.8910 N   0  0  0  0  0  0  0  0  0  0  0  0
  -28.7700   -6.3080  -31.7540 C   0  0  0  0  0  0  0  0  0  0  0  0
  -28.8920   -6.2460  -30.4010 N   0  0  0  0  0  0  0  0  0  0  0  0
  -28.5560   -7.4130  -29.8790 N   0  0  0  0  0  0  0  0  0  0  0  0
  -28.2610   -7.8820  -28.4990 C   0  0  0  0  0  0  0  0  0  0  0  0
  -28.7680  -10.6640  -31.4820 C   0  0  1  0  0  0  0  0  0  0  0  0
  -27.9170  -11.8890  -31.3300 C   0  0  0  0  0  0  0  0  0  0  0  0
  -28.6990  -13.0310  -31.2910 O   0  0  0  0  0  0  0  0  0  0  0  0
  -29.6130  -13.0540  -30.2310 C   0  0  0  0  0  0  0  0  0  0  0  0
  -30.5630  -11.8760  -30.3270 C   0  0  0  0  0  0  0  0  0  0  0  0
  -29.7270  -10.5930  -30.2790 C   0  0  0  0  0  0  0  0  0  0  0  0
  -31.6920  -11.8040  -30.1860 O   0  0  0  0  0  0  0  0  0  0  0  0
  -26.8230   -7.5720  -28.1380 C   0  0  0  0  0  0  0  0  0  0  0  0
  1  2  2  0
  1  3  1  0
  1  6  1  0
  2  4  1  0
  8  3  1  1
  4  5  2  0
  5  6  1  0
  6  7  1  0
  8  9  1  0
  8 13  1  0
  9 10  1  0
 10 11  1  0
 11 12  1  0
 12 13  1  0
 12 14  2  0
  7 15  1  0
M  END
>  <name>  (204) 
Car Nac Nd0 Car Nac Nac Cs3 C3r C3r O_a C3r C2r C3r .=O Cs3

>  <indices>  (204) 
[0, 1, 2]

>  <tasks>  (204) 
probe_placing close_aromatic_ring close_aromatic_ring close_aromatic_ring ring_built build_to_Nac build_to_Nd0 close_aliphatic_ring close_aliphatic_ring close_aliphatic_ring close_aliphatic_ring close_aliphatic_ring build_DB_to_Cs2

>  <prot_clashes>  (204) 
8

>  <NBS phar>  (204) 
0.25999999999999995

>  <NBS_non-phar>  (204) 
0.6457359313964843

>  <NBS>  (204) 
0.9057359313964843

>  <source_stage>  (204) 
scored

>  <source_iter>  (204) 
12

>  <source_parent_mol>  (204) 
0

>  <source_scenario>  (204) 
1 2 3 1 0 7 0 0 1 0 0 0

>  <source_rank_in_scored_call>  (204) 
37

>  <source_current_task>  (204) 
no_task

>  <scenario>  (204) 
1 2 3 1 0 7 0 0 1 0 0

>  <protected_ring_attachments>  (204) 
3,1,0,2|1,0,2;4,5,0,2|5,0,2;9,8,7,2|8,7,2;11,12,7,2|12,7,2

>  <current_task>  (204) 
no_task

>  <rotatable_bond_torsions>  (204) 
1,0,2,7;0,2,7,8

$$$$

     RDKit          3D

 15 16  0  0  0  0  0  0  0  0999 V2000
  -27.9620   -8.5170  -31.1500 C   0  0  0  0  0  0  0  0  0  0  0  0
  -28.4250   -7.6920  -32.1340 N   0  0  0  0  0  0  0  0  0  0  0  0
  -27.7330   -9.9760  -31.4270 N   0  0  0  0  0  0  0  0  0  0  0  0
  -28.5050   -6.4450  -31.6390 C   0  0  0  0  0  0  0  0  0  0  0  0
  -28.0900   -6.5120  -30.3460 N   0  0  0  0  0  0  0  0  0  0  0  0
  -27.7650   -7.7600  -30.0560 N   0  0  0  0  0  0  0  0  0  0  0  0
  -27.0420   -8.4050  -28.9280 C   0  0  0  0  0  0  0  0  0  0  0  0
  -29.0760  -10.7710  -31.6040 C   0  0  1  0  0  0  0  0  0  0  0  0
  -28.4330  -12.1020  -31.8590 C   0  0  0  0  0  0  0  0  0  0  0  0
  -29.3080  -13.1360  -31.5710 O   0  0  0  0  0  0  0  0  0  0  0  0
  -29.7400  -13.1570  -30.2400 C   0  0  0  0  0  0  0  0  0  0  0  0
  -30.4590  -11.8670  -29.8970 C   0  0  0  0  0  0  0  0  0  0  0  0
  -29.4800  -10.7110  -30.1190 C   0  0  0  0  0  0  0  0  0  0  0  0
  -31.4220  -11.6710  -29.3200 O   0  0  0  0  0  0  0  0  0  0  0  0
  -27.3000   -7.7040  -27.6120 C   0  0  0  0  0  0  0  0  0  0  0  0
  1  2  2  0
  1  3  1  0
  1  6  1  0
  2  4  1  0
  8  3  1  1
  4  5  2  0
  5  6  1  0
  6  7  1  0
  8  9  1  0
  8 13  1  0
  9 10  1  0
 10 11  1  0
 11 12  1  0
 12 13  1  0
 12 14  2  0
  7 15  1  0
M  END
>  <name>  (205) 
Car Nac Nd0 Car Nac Nac Cs3 C3r C3r O_a C3r C2r C3r .=O Cs3

>  <indices>  (205) 
[0, 1, 2]

>  <tasks>  (205) 
probe_placing close_aromatic_ring close_aromatic_ring close_aromatic_ring ring_built build_to_Nac build_to_Nd0 close_aliphatic_ring close_aliphatic_ring close_aliphatic_ring close_aliphatic_ring close_aliphatic_ring build_DB_to_Cs2

>  <prot_clashes>  (205) 
5

>  <NBS phar>  (205) 
0.12

>  <NBS_non-phar>  (205) 
0.6162424723307292

>  <NBS>  (205) 
0.7362424723307291

>  <source_stage>  (205) 
scored

>  <source_iter>  (205) 
12

>  <source_parent_mol>  (205) 
0

>  <source_scenario>  (205) 
1 2 3 1 0 7 0 0 1 0 0 0

>  <source_rank_in_scored_call>  (205) 
78

>  <source_current_task>  (205) 
no_task

>  <scenario>  (205) 
1 2 3 1 0 7 0 0 1 0 0

>  <protected_ring_attachments>  (205) 
3,1,0,2|1,0,2;4,5,0,2|5,0,2;9,8,7,2|8,7,2;11,12,7,2|12,7,2

>  <current_task>  (205) 
no_task

>  <rotatable_bond_torsions>  (205) 
1,0,2,7;0,2,7,8

$$$$

     RDKit          3D

 13 14  0  0  0  0  0  0  0  0999 V2000
  -27.9220   -7.3820  -31.2810 C   0  0  0  0  0  0  0  0  0  0  0  0
  -27.7530   -6.8070  -32.5060 N   0  0  0  0  0  0  0  0  0  0  0  0
  -27.6980   -8.8570  -31.0980 N   0  0  0  0  0  0  0  0  0  0  0  0
  -27.9780   -5.4850  -32.3890 C   0  0  0  0  0  0  0  0  0  0  0  0
  -28.2860   -5.2580  -31.0830 N   0  0  0  0  0  0  0  0  0  0  0  0
  -28.2520   -6.4010  -30.4220 N   0  0  0  0  0  0  0  0  0  0  0  0
  -28.2570   -6.7600  -28.9790 C   0  0  0  0  0  0  0  0  0  0  0  0
  -28.8660   -9.7620  -31.1820 C   0  0  1  0  0  0  0  0  0  0  0  0
  -28.3800  -11.0480  -31.7680 C   0  0  0  0  0  0  0  0  0  0  0  0
  -29.2880  -12.0510  -31.5810 O   0  0  0  0  0  0  0  0  0  0  0  0
  -29.5670  -12.3090  -30.2410 C   0  0  0  0  0  0  0  0  0  0  0  0
  -30.1350  -11.0650  -29.5760 C   0  0  0  0  0  0  0  0  0  0  0  0
  -29.0820   -9.9550  -29.7020 C   0  0  0  0  0  0  0  0  0  0  0  0
  1  2  2  0
  1  3  1  0
  1  6  1  0
  2  4  1  0
  8  3  1  1
  4  5  2  0
  5  6  1  0
  6  7  1  0
  8  9  1  0
  8 13  1  0
  9 10  1  0
 10 11  1  0
 11 12  1  0
 12 13  1  0
M  END
>  <name>  (206) 
Car Nac Nd0 Car Nac Nac Cs3 C3r C3r O_a C3r C3r C3r

>  <indices>  (206) 
[0, 1, 2]

>  <tasks>  (206) 
probe_placing close_aromatic_ring close_aromatic_ring close_aromatic_ring ring_built build_to_Nac build_to_Nd0 close_aliphatic_ring close_aliphatic_ring close_aliphatic_ring close_aliphatic_ring

>  <prot_clashes>  (206) 
3

>  <NBS phar>  (206) 
0.13999999999999999

>  <NBS_non-phar>  (206) 
0.6321251208965595

>  <NBS>  (206) 
0.7721251208965595

>  <source_stage>  (206) 
scored

>  <source_iter>  (206) 
10

>  <source_parent_mol>  (206) 
1

>  <source_scenario>  (206) 
1 2 3 1 0 7 0 0 1 1

>  <source_rank_in_scored_call>  (206) 
1

>  <source_current_task>  (206) 
close_aliphatic_ring

>  <scenario>  (206) 
1 2 3 1 0 7 0 0 1

>  <protected_ring_attachments>  (206) 
3,1,0,2|1,0,2;4,5,0,2|5,0,2

>  <current_task>  (206) 
no_task

>  <rotatable_bond_torsions>  (206) 
1,0,2,7;0,2,7,8;2,7,8,9;7,8,9,10;8,9,10,11

$$$$

     RDKit          3D

 14 15  0  0  0  0  0  0  0  0999 V2000
  -28.0170   -7.5000  -31.3320 C   0  0  0  0  0  0  0  0  0  0  0  0
  -27.7810   -6.8610  -32.5130 N   0  0  0  0  0  0  0  0  0  0  0  0
  -27.7540   -8.9740  -31.2010 N   0  0  0  0  0  0  0  0  0  0  0  0
  -28.0610   -5.5540  -32.3520 C   0  0  0  0  0  0  0  0  0  0  0  0
  -28.4700   -5.4010  -31.0630 N   0  0  0  0  0  0  0  0  0  0  0  0
  -28.4430   -6.5730  -30.4550 N   0  0  0  0  0  0  0  0  0  0  0  0
  -28.5380   -7.0020  -29.0340 C   0  0  0  0  0  0  0  0  0  0  0  0
  -28.8800   -9.9110  -31.4120 C   0  0  1  0  0  0  0  0  0  0  0  0
  -28.3070  -11.1510  -32.0200 C   0  0  0  0  0  0  0  0  0  0  0  0
  -29.1900  -12.1900  -31.9460 O   0  0  0  0  0  0  0  0  0  0  0  0
  -29.5550  -12.5220  -30.6440 C   0  0  0  0  0  0  0  0  0  0  0  0
  -30.2130  -11.3310  -29.9650 C   0  0  0  0  0  0  0  0  0  0  0  0
  -29.1950  -10.1830  -29.9620 C   0  0  0  0  0  0  0  0  0  0  0  0
  -27.3070   -6.8330  -28.1010 C   0  0  0  0  0  0  0  0  0  0  0  0
  1  2  2  0
  1  3  1  0
  1  6  1  0
  2  4  1  0
  8  3  1  1
  4  5  2  0
  5  6  1  0
  6  7  1  0
  8  9  1  0
  8 13  1  0
  9 10  1  0
 10 11  1  0
 11 12  1  0
 12 13  1  0
  7 14  1  0
M  END
>  <name>  (207) 
Car Nac Nd0 Car Nac Nac Cs3 C3r C3r O_a C3r C3r C3r Cs3

>  <indices>  (207) 
[0, 1, 2]

>  <tasks>  (207) 
probe_placing close_aromatic_ring close_aromatic_ring close_aromatic_ring ring_built build_to_Nac build_to_Nd0 close_aliphatic_ring close_aliphatic_ring close_aliphatic_ring close_aliphatic_ring close_aliphatic_ring

>  <prot_clashes>  (207) 
8

>  <NBS phar>  (207) 
0.24000000000000005

>  <NBS_non-phar>  (207) 
0.6534436770847866

>  <NBS>  (207) 
0.8934436770847867

>  <source_stage>  (207) 
scored

>  <source_iter>  (207) 
11

>  <source_parent_mol>  (207) 
1

>  <source_scenario>  (207) 
1 2 3 1 0 7 0 0 1 1 1

>  <source_rank_in_scored_call>  (207) 
7

>  <source_current_task>  (207) 
no_task

>  <scenario>  (207) 
1 2 3 1 0 7 0 0 1 1

>  <protected_ring_attachments>  (207) 
3,1,0,2|1,0,2;4,5,0,2|5,0,2;9,8,7,2|8,7,2;11,12,7,2|12,7,2

>  <current_task>  (207) 
no_task

>  <rotatable_bond_torsions>  (207) 
1,0,2,7;0,2,7,8

$$$$

     RDKit          3D

 14 15  0  0  0  0  0  0  0  0999 V2000
  -28.0180   -7.2710  -31.5330 C   0  0  0  0  0  0  0  0  0  0  0  0
  -27.8350   -6.8040  -32.8010 N   0  0  0  0  0  0  0  0  0  0  0  0
  -27.7810   -8.7210  -31.2160 N   0  0  0  0  0  0  0  0  0  0  0  0
  -28.0760   -5.4800  -32.8050 C   0  0  0  0  0  0  0  0  0  0  0  0
  -28.4080   -5.1420  -31.5290 N   0  0  0  0  0  0  0  0  0  0  0  0
  -28.3730   -6.2220  -30.7690 N   0  0  0  0  0  0  0  0  0  0  0  0
  -28.3990   -6.4520  -29.3000 C   0  0  0  0  0  0  0  0  0  0  0  0
  -28.9380   -9.6440  -31.2390 C   0  0  1  0  0  0  0  0  0  0  0  0
  -28.4280  -10.9710  -31.7010 C   0  0  0  0  0  0  0  0  0  0  0  0
  -29.3280  -11.9640  -31.4400 O   0  0  0  0  0  0  0  0  0  0  0  0
  -29.6270  -12.1060  -30.0870 C   0  0  0  0  0  0  0  0  0  0  0  0
  -30.2200  -10.8160  -29.5440 C   0  0  0  0  0  0  0  0  0  0  0  0
  -29.1770   -9.7080  -29.7510 C   0  0  0  0  0  0  0  0  0  0  0  0
  -27.7440   -5.2760  -28.3820 C   0  0  0  0  0  0  0  0  0  0  0  0
  1  2  2  0
  1  3  1  0
  1  6  1  0
  2  4  1  0
  8  3  1  1
  4  5  2  0
  5  6  1  0
  6  7  1  0
  8  9  1  0
  8 13  1  0
  9 10  1  0
 10 11  1  0
 11 12  1  0
 12 13  1  0
  7 14  1  0
M  END
>  <name>  (208) 
Car Nac Nd0 Car Nac Nac Cs3 C3r C3r O_a C3r C3r C3r Cs3

>  <indices>  (208) 
[0, 1, 2]

>  <tasks>  (208) 
probe_placing close_aromatic_ring close_aromatic_ring close_aromatic_ring ring_built build_to_Nac build_to_Nd0 close_aliphatic_ring close_aliphatic_ring close_aliphatic_ring close_aliphatic_ring close_aliphatic_ring

>  <prot_clashes>  (208) 
11

>  <NBS phar>  (208) 
0.24000000000000005

>  <NBS_non-phar>  (208) 
0.6200515883309501

>  <NBS>  (208) 
0.8600515883309501

>  <source_stage>  (208) 
scored

>  <source_iter>  (208) 
11

>  <source_parent_mol>  (208) 
1

>  <source_scenario>  (208) 
1 2 3 1 0 7 0 0 1 1 1

>  <source_rank_in_scored_call>  (208) 
26

>  <source_current_task>  (208) 
no_task

>  <scenario>  (208) 
1 2 3 1 0 7 0 0 1 1

>  <protected_ring_attachments>  (208) 
3,1,0,2|1,0,2;4,5,0,2|5,0,2;9,8,7,2|8,7,2;11,12,7,2|12,7,2

>  <current_task>  (208) 
no_task

>  <rotatable_bond_torsions>  (208) 
1,0,2,7;0,2,7,8

$$$$

     RDKit          3D

 14 15  0  0  0  0  0  0  0  0999 V2000
  -28.0350   -7.4620  -31.3330 C   0  0  0  0  0  0  0  0  0  0  0  0
  -27.7340   -6.8470  -32.5120 N   0  0  0  0  0  0  0  0  0  0  0  0
  -27.7620   -8.9290  -31.1520 N   0  0  0  0  0  0  0  0  0  0  0  0
  -28.0410   -5.5410  -32.4000 C   0  0  0  0  0  0  0  0  0  0  0  0
  -28.5320   -5.3650  -31.1430 N   0  0  0  0  0  0  0  0  0  0  0  0
  -28.5270   -6.5220  -30.5070 N   0  0  0  0  0  0  0  0  0  0  0  0
  -28.7060   -6.9200  -29.0850 C   0  0  0  0  0  0  0  0  0  0  0  0
  -28.8600   -9.8870  -31.4100 C   0  0  1  0  0  0  0  0  0  0  0  0
  -28.2350  -11.1320  -31.9520 C   0  0  0  0  0  0  0  0  0  0  0  0
  -29.1070  -12.1820  -31.9090 O   0  0  0  0  0  0  0  0  0  0  0  0
  -29.5480  -12.4900  -30.6240 C   0  0  0  0  0  0  0  0  0  0  0  0
  -30.2630  -11.2930  -30.0160 C   0  0  0  0  0  0  0  0  0  0  0  0
  -29.2610  -10.1300  -29.9770 C   0  0  0  0  0  0  0  0  0  0  0  0
  -27.4010   -6.7690  -28.3320 C   0  0  0  0  0  0  0  0  0  0  0  0
  1  2  2  0
  1  3  1  0
  1  6  1  0
  2  4  1  0
  8  3  1  1
  4  5  2  0
  5  6  1  0
  6  7  1  0
  8  9  1  0
  8 13  1  0
  9 10  1  0
 10 11  1  0
 11 12  1  0
 12 13  1  0
  7 14  1  0
M  END
>  <name>  (209) 
Car Nac Nd0 Car Nac Nac Cs3 C3r C3r O_a C3r C3r C3r Cs3

>  <indices>  (209) 
[0, 1, 2]

>  <tasks>  (209) 
probe_placing close_aromatic_ring close_aromatic_ring close_aromatic_ring ring_built build_to_Nac build_to_Nd0 close_aliphatic_ring close_aliphatic_ring close_aliphatic_ring close_aliphatic_ring close_aliphatic_ring

>  <prot_clashes>  (209) 
7

>  <NBS phar>  (209) 
0.13999999999999999

>  <NBS_non-phar>  (209) 
0.643669605255127

>  <NBS>  (209) 
0.783669605255127

>  <source_stage>  (209) 
scored

>  <source_iter>  (209) 
11

>  <source_parent_mol>  (209) 
1

>  <source_scenario>  (209) 
1 2 3 1 0 7 0 0 1 1 1

>  <source_rank_in_scored_call>  (209) 
61

>  <source_current_task>  (209) 
no_task

>  <scenario>  (209) 
1 2 3 1 0 7 0 0 1 1

>  <protected_ring_attachments>  (209) 
3,1,0,2|1,0,2;4,5,0,2|5,0,2;9,8,7,2|8,7,2;11,12,7,2|12,7,2

>  <current_task>  (209) 
no_task

>  <rotatable_bond_torsions>  (209) 
1,0,2,7;0,2,7,8

$$$$

     RDKit          3D

 14 15  0  0  0  0  0  0  0  0999 V2000
  -27.9820   -7.4010  -31.3490 C   0  0  0  0  0  0  0  0  0  0  0  0
  -27.7240   -6.8540  -32.5710 N   0  0  0  0  0  0  0  0  0  0  0  0
  -27.7270   -8.8620  -31.1030 N   0  0  0  0  0  0  0  0  0  0  0  0
  -28.0010   -5.5380  -32.5140 C   0  0  0  0  0  0  0  0  0  0  0  0
  -28.4310   -5.2860  -31.2470 N   0  0  0  0  0  0  0  0  0  0  0  0
  -28.4180   -6.4090  -30.5520 N   0  0  0  0  0  0  0  0  0  0  0  0
  -28.5390   -6.7290  -29.1050 C   0  0  0  0  0  0  0  0  0  0  0  0
  -28.8530   -9.8090  -31.2620 C   0  0  1  0  0  0  0  0  0  0  0  0
  -28.2750  -11.0920  -31.7640 C   0  0  0  0  0  0  0  0  0  0  0  0
  -29.1630  -12.1210  -31.6270 O   0  0  0  0  0  0  0  0  0  0  0  0
  -29.5510  -12.3530  -30.3100 C   0  0  0  0  0  0  0  0  0  0  0  0
  -30.2160  -11.1120  -29.7350 C   0  0  0  0  0  0  0  0  0  0  0  0
  -29.1930   -9.9700  -29.8010 C   0  0  0  0  0  0  0  0  0  0  0  0
  -27.6880   -5.8080  -28.1500 C   0  0  0  0  0  0  0  0  0  0  0  0
  1  2  2  0
  1  3  1  0
  1  6  1  0
  2  4  1  0
  8  3  1  1
  4  5  2  0
  5  6  1  0
  6  7  1  0
  8  9  1  0
  8 13  1  0
  9 10  1  0
 10 11  1  0
 11 12  1  0
 12 13  1  0
  7 14  1  0
M  END
>  <name>  (210) 
Car Nac Nd0 Car Nac Nac Cs3 C3r C3r O_a C3r C3r C3r Cs3

>  <indices>  (210) 
[0, 1, 2]

>  <tasks>  (210) 
probe_placing close_aromatic_ring close_aromatic_ring close_aromatic_ring ring_built build_to_Nac build_to_Nd0 close_aliphatic_ring close_aliphatic_ring close_aliphatic_ring close_aliphatic_ring close_aliphatic_ring

>  <prot_clashes>  (210) 
10

>  <NBS phar>  (210) 
0.1

>  <NBS_non-phar>  (210) 
0.6118574142456055

>  <NBS>  (210) 
0.7118574142456054

>  <source_stage>  (210) 
scored

>  <source_iter>  (210) 
11

>  <source_parent_mol>  (210) 
1

>  <source_scenario>  (210) 
1 2 3 1 0 7 0 0 1 1 1

>  <source_rank_in_scored_call>  (210) 
102

>  <source_current_task>  (210) 
no_task

>  <scenario>  (210) 
1 2 3 1 0 7 0 0 1 1

>  <protected_ring_attachments>  (210) 
3,1,0,2|1,0,2;4,5,0,2|5,0,2;9,8,7,2|8,7,2;11,12,7,2|12,7,2

>  <current_task>  (210) 
no_task

>  <rotatable_bond_torsions>  (210) 
1,0,2,7;0,2,7,8

$$$$

     RDKit          3D

 14 15  0  0  0  0  0  0  0  0999 V2000
  -27.8820   -7.1540  -31.2790 C   0  0  0  0  0  0  0  0  0  0  0  0
  -27.7890   -6.6970  -32.5610 N   0  0  0  0  0  0  0  0  0  0  0  0
  -27.8140   -8.6280  -30.9930 N   0  0  0  0  0  0  0  0  0  0  0  0
  -27.8410   -5.3520  -32.5370 C   0  0  0  0  0  0  0  0  0  0  0  0
  -27.9680   -4.9920  -31.2300 N   0  0  0  0  0  0  0  0  0  0  0  0
  -27.9930   -6.0790  -30.4790 N   0  0  0  0  0  0  0  0  0  0  0  0
  -27.8740   -6.3270  -29.0180 C   0  0  0  0  0  0  0  0  0  0  0  0
  -29.0830   -9.3810  -30.8740 C   0  0  1  0  0  0  0  0  0  0  0  0
  -28.8230  -10.7580  -31.3940 C   0  0  0  0  0  0  0  0  0  0  0  0
  -29.8150  -11.6210  -31.0260 O   0  0  0  0  0  0  0  0  0  0  0  0
  -29.9660  -11.7420  -29.6460 C   0  0  0  0  0  0  0  0  0  0  0  0
  -30.3030  -10.3910  -29.0360 C   0  0  0  0  0  0  0  0  0  0  0  0
  -29.1480   -9.4360  -29.3690 C   0  0  0  0  0  0  0  0  0  0  0  0
  -29.2150   -5.8480  -28.3870 C   0  0  0  0  0  0  0  0  0  0  0  0
  1  2  2  0
  1  3  1  0
  1  6  1  0
  2  4  1  0
  8  3  1  1
  4  5  2  0
  5  6  1  0
  6  7  1  0
  8  9  1  0
  8 13  1  0
  9 10  1  0
 10 11  1  0
 11 12  1  0
 12 13  1  0
  7 14  1  0
M  END
>  <name>  (211) 
Car Nac Nd0 Car Nac Nac Cs3 C3r C3r O_a C3r C3r C3r Cs3

>  <indices>  (211) 
[0, 1, 2]

>  <tasks>  (211) 
probe_placing close_aromatic_ring close_aromatic_ring close_aromatic_ring ring_built build_to_Nac build_to_Nd0 close_aliphatic_ring close_aliphatic_ring close_aliphatic_ring close_aliphatic_ring close_aliphatic_ring

>  <prot_clashes>  (211) 
8

>  <NBS phar>  (211) 
0.22000000000000003

>  <NBS_non-phar>  (211) 
0.46609483446393696

>  <NBS>  (211) 
0.686094834463937

>  <source_stage>  (211) 
scored

>  <source_iter>  (211) 
11

>  <source_parent_mol>  (211) 
1

>  <source_scenario>  (211) 
1 2 3 1 0 7 0 0 1 1 1

>  <source_rank_in_scored_call>  (211) 
119

>  <source_current_task>  (211) 
no_task

>  <scenario>  (211) 
1 2 3 1 0 7 0 0 1 1

>  <protected_ring_attachments>  (211) 
3,1,0,2|1,0,2;4,5,0,2|5,0,2;9,8,7,2|8,7,2;11,12,7,2|12,7,2

>  <current_task>  (211) 
no_task

>  <rotatable_bond_torsions>  (211) 
1,0,2,7;0,2,7,8

$$$$

     RDKit          3D

 14 15  0  0  0  0  0  0  0  0999 V2000
  -27.9530   -8.1760  -30.6360 C   0  0  0  0  0  0  0  0  0  0  0  0
  -27.6440   -7.4770  -31.7660 N   0  0  0  0  0  0  0  0  0  0  0  0
  -27.7190   -9.6590  -30.5730 N   0  0  0  0  0  0  0  0  0  0  0  0
  -27.9130   -6.1770  -31.5480 C   0  0  0  0  0  0  0  0  0  0  0  0
  -28.3890   -6.0870  -30.2760 N   0  0  0  0  0  0  0  0  0  0  0  0
  -28.4110   -7.2900  -29.7330 N   0  0  0  0  0  0  0  0  0  0  0  0
  -28.5890   -7.7940  -28.3450 C   0  0  0  0  0  0  0  0  0  0  0  0
  -28.8460  -10.5630  -30.8950 C   0  0  1  0  0  0  0  0  0  0  0  0
  -28.2600  -11.7780  -31.5390 C   0  0  0  0  0  0  0  0  0  0  0  0
  -29.1600  -12.8040  -31.5700 O   0  0  0  0  0  0  0  0  0  0  0  0
  -29.6000  -13.2000  -30.3090 C   0  0  0  0  0  0  0  0  0  0  0  0
  -30.2760  -12.0360  -29.6020 C   0  0  0  0  0  0  0  0  0  0  0  0
  -29.2420  -10.9080  -29.4810 C   0  0  0  0  0  0  0  0  0  0  0  0
  -27.7250   -5.0400  -32.5230 C   0  0  0  0  0  0  0  0  0  0  0  0
  1  2  2  0
  1  3  1  0
  1  6  1  0
  2  4  1  0
  8  3  1  1
  4 14  1  0
  4  5  2  0
  5  6  1  0
  6  7  1  0
  8  9  1  0
  8 13  1  0
  9 10  1  0
 10 11  1  0
 11 12  1  0
 12 13  1  0
M  END
>  <name>  (212) 
Car Nac Nd0 Car Nac Nac Cs3 C3r C3r O_a C3r C3r C3r Cs3

>  <indices>  (212) 
[0, 1, 2]

>  <tasks>  (212) 
probe_placing close_aromatic_ring close_aromatic_ring close_aromatic_ring ring_built build_to_Nac build_to_Nd0 close_aliphatic_ring close_aliphatic_ring close_aliphatic_ring close_aliphatic_ring close_aliphatic_ring

>  <prot_clashes>  (212) 
5

>  <NBS phar>  (212) 
0.12

>  <NBS_non-phar>  (212) 
0.5590398992810931

>  <NBS>  (212) 
0.6790398992810931

>  <source_stage>  (212) 
scored

>  <source_iter>  (212) 
11

>  <source_parent_mol>  (212) 
1

>  <source_scenario>  (212) 
1 2 3 1 0 7 0 0 1 1 1

>  <source_rank_in_scored_call>  (212) 
126

>  <source_current_task>  (212) 
no_task

>  <scenario>  (212) 
1 2 3 1 0 7 0 0 1 1

>  <protected_ring_attachments>  (212) 
3,1,0,2|1,0,2;4,5,0,2|5,0,2;9,8,7,2|8,7,2;11,12,7,2|12,7,2

>  <current_task>  (212) 
no_task

>  <rotatable_bond_torsions>  (212) 
1,0,2,7;0,2,7,8

$$$$

     RDKit          3D

 14 15  0  0  0  0  0  0  0  0999 V2000
  -27.9820   -7.3230  -31.3730 C   0  0  0  0  0  0  0  0  0  0  0  0
  -27.6890   -6.8040  -32.5990 N   0  0  0  0  0  0  0  0  0  0  0  0
  -27.7280   -8.7760  -31.0830 N   0  0  0  0  0  0  0  0  0  0  0  0
  -27.9740   -5.4890  -32.5830 C   0  0  0  0  0  0  0  0  0  0  0  0
  -28.4440   -5.2090  -31.3370 N   0  0  0  0  0  0  0  0  0  0  0  0
  -28.4480   -6.3150  -30.6140 N   0  0  0  0  0  0  0  0  0  0  0  0
  -28.6130   -6.6000  -29.1640 C   0  0  0  0  0  0  0  0  0  0  0  0
  -28.8440   -9.7330  -31.2540 C   0  0  1  0  0  0  0  0  0  0  0  0
  -28.2450  -11.0250  -31.7070 C   0  0  0  0  0  0  0  0  0  0  0  0
  -29.1320  -12.0550  -31.5730 O   0  0  0  0  0  0  0  0  0  0  0  0
  -29.5600  -12.2570  -30.2630 C   0  0  0  0  0  0  0  0  0  0  0  0
  -30.2490  -11.0060  -29.7390 C   0  0  0  0  0  0  0  0  0  0  0  0
  -29.2290   -9.8600  -29.8020 C   0  0  0  0  0  0  0  0  0  0  0  0
  -28.4140   -5.2230  -28.3900 C   0  0  0  0  0  0  0  0  0  0  0  0
  1  2  2  0
  1  3  1  0
  1  6  1  0
  2  4  1  0
  8  3  1  1
  4  5  2  0
  5  6  1  0
  6  7  1  0
  8  9  1  0
  8 13  1  0
  9 10  1  0
 10 11  1  0
 11 12  1  0
 12 13  1  0
  7 14  1  0
M  END
>  <name>  (213) 
Car Nac Nd0 Car Nac Nac Cs3 C3r C3r O_a C3r C3r C3r Cs3

>  <indices>  (213) 
[0, 1, 2]

>  <tasks>  (213) 
probe_placing close_aromatic_ring close_aromatic_ring close_aromatic_ring ring_built build_to_Nac build_to_Nd0 close_aliphatic_ring close_aliphatic_ring close_aliphatic_ring close_aliphatic_ring close_aliphatic_ring

>  <prot_clashes>  (213) 
10

>  <NBS phar>  (213) 
0.12

>  <NBS_non-phar>  (213) 
0.529224191393171

>  <NBS>  (213) 
0.649224191393171

>  <source_stage>  (213) 
scored

>  <source_iter>  (213) 
11

>  <source_parent_mol>  (213) 
1

>  <source_scenario>  (213) 
1 2 3 1 0 7 0 0 1 1 1

>  <source_rank_in_scored_call>  (213) 
135

>  <source_current_task>  (213) 
no_task

>  <scenario>  (213) 
1 2 3 1 0 7 0 0 1 1

>  <protected_ring_attachments>  (213) 
3,1,0,2|1,0,2;4,5,0,2|5,0,2;9,8,7,2|8,7,2;11,12,7,2|12,7,2

>  <current_task>  (213) 
no_task

>  <rotatable_bond_torsions>  (213) 
1,0,2,7;0,2,7,8

$$$$

     RDKit          3D

 14 15  0  0  0  0  0  0  0  0999 V2000
  -28.0940   -7.3250  -31.3190 C   0  0  0  0  0  0  0  0  0  0  0  0
  -27.6840   -6.8080  -32.5120 N   0  0  0  0  0  0  0  0  0  0  0  0
  -27.7900   -8.7550  -30.9680 N   0  0  0  0  0  0  0  0  0  0  0  0
  -28.0480   -5.5130  -32.5600 C   0  0  0  0  0  0  0  0  0  0  0  0
  -28.6840   -5.2440  -31.3870 N   0  0  0  0  0  0  0  0  0  0  0  0
  -28.7090   -6.3370  -30.6450 N   0  0  0  0  0  0  0  0  0  0  0  0
  -29.0330   -6.6100  -29.2200 C   0  0  0  0  0  0  0  0  0  0  0  0
  -28.8170   -9.7820  -31.2510 C   0  0  1  0  0  0  0  0  0  0  0  0
  -28.0900  -11.0410  -31.5980 C   0  0  0  0  0  0  0  0  0  0  0  0
  -28.9230  -12.1230  -31.5490 O   0  0  0  0  0  0  0  0  0  0  0  0
  -29.4950  -12.3300  -30.2960 C   0  0  0  0  0  0  0  0  0  0  0  0
  -30.3170  -11.1170  -29.8880 C   0  0  0  0  0  0  0  0  0  0  0  0
  -29.3680   -9.9110  -29.8530 C   0  0  0  0  0  0  0  0  0  0  0  0
  -29.2120   -5.3370  -28.3870 C   0  0  0  0  0  0  0  0  0  0  0  0
  1  2  2  0
  1  3  1  0
  1  6  1  0
  2  4  1  0
  8  3  1  1
  4  5  2  0
  5  6  1  0
  6  7  1  0
  8  9  1  0
  8 13  1  0
  9 10  1  0
 10 11  1  0
 11 12  1  0
 12 13  1  0
  7 14  1  0
M  END
>  <name>  (214) 
Car Nac Nd0 Car Nac Nac Cs3 C3r C3r O_a C3r C3r C3r Cs3

>  <indices>  (214) 
[0, 1, 2]

>  <tasks>  (214) 
probe_placing close_aromatic_ring close_aromatic_ring close_aromatic_ring ring_built build_to_Nac build_to_Nd0 close_aliphatic_ring close_aliphatic_ring close_aliphatic_ring close_aliphatic_ring close_aliphatic_ring

>  <prot_clashes>  (214) 
9

>  <NBS phar>  (214) 
0.12

>  <NBS_non-phar>  (214) 
0.5050480706351144

>  <NBS>  (214) 
0.6250480706351144

>  <source_stage>  (214) 
scored

>  <source_iter>  (214) 
11

>  <source_parent_mol>  (214) 
1

>  <source_scenario>  (214) 
1 2 3 1 0 7 0 0 1 1 1

>  <source_rank_in_scored_call>  (214) 
141

>  <source_current_task>  (214) 
no_task

>  <scenario>  (214) 
1 2 3 1 0 7 0 0 1 1

>  <protected_ring_attachments>  (214) 
3,1,0,2|1,0,2;4,5,0,2|5,0,2;9,8,7,2|8,7,2;11,12,7,2|12,7,2

>  <current_task>  (214) 
no_task

>  <rotatable_bond_torsions>  (214) 
1,0,2,7;0,2,7,8

$$$$

     RDKit          3D

 12 13  0  0  0  0  0  0  0  0999 V2000
  -27.8240   -7.4080  -31.2750 C   0  0  0  0  0  0  0  0  0  0  0  0
  -28.0310   -6.8800  -32.5150 N   0  0  0  0  0  0  0  0  0  0  0  0
  -27.3600   -8.8290  -31.1230 N   0  0  0  0  0  0  0  0  0  0  0  0
  -28.4030   -5.5940  -32.3720 C   0  0  0  0  0  0  0  0  0  0  0  0
  -28.4220   -5.3410  -31.0350 N   0  0  0  0  0  0  0  0  0  0  0  0
  -28.0750   -6.4350  -30.3800 N   0  0  0  0  0  0  0  0  0  0  0  0
  -27.6870   -6.7170  -28.9710 C   0  0  0  0  0  0  0  0  0  0  0  0
  -28.2980   -9.9510  -30.7000 C   0  0  2  0  0  0  0  0  0  0  0  0
  -27.6880  -11.1420  -31.4290 C   0  0  0  0  0  0  0  0  0  0  0  0
  -28.5650  -12.1920  -31.3060 O   0  0  0  0  0  0  0  0  0  0  0  0
  -29.7720  -11.7610  -30.8230 C   0  0  0  0  0  0  0  0  0  0  0  0
  -29.7470  -10.2330  -30.8410 C   0  0  0  0  0  0  0  0  0  0  0  0
  1  2  2  0
  1  3  1  0
  1  6  1  0
  2  4  1  0
  8  3  1  6
  4  5  2  0
  5  6  1  0
  6  7  1  0
  8  9  1  0
  8 12  1  0
  9 10  1  0
 10 11  1  0
 11 12  1  0
M  END
>  <name>  (215) 
Car Nac Nd0 Car Nac Nac Cs3 C3r C3r O_a C3r C3r

>  <indices>  (215) 
[0, 1, 2]

>  <tasks>  (215) 
probe_placing close_aromatic_ring close_aromatic_ring close_aromatic_ring ring_built build_to_Nac build_to_Nd0 close_aliphatic_ring close_aliphatic_ring close_aliphatic_ring

>  <prot_clashes>  (215) 
11

>  <NBS phar>  (215) 
0.24000000000000005

>  <NBS_non-phar>  (215) 
0.5735049247741699

>  <NBS>  (215) 
0.8135049247741699

>  <source_stage>  (215) 
scored

>  <source_iter>  (215) 
9

>  <source_parent_mol>  (215) 
3

>  <source_scenario>  (215) 
1 2 3 1 0 7 0 0 3

>  <source_rank_in_scored_call>  (215) 
0

>  <source_current_task>  (215) 
close_aliphatic_ring

>  <scenario>  (215) 
1 2 3 1 0 7 0 0

>  <protected_ring_attachments>  (215) 
3,1,0,2|1,0,2;4,5,0,2|5,0,2

>  <current_task>  (215) 
no_task

>  <rotatable_bond_torsions>  (215) 
1,0,2,7;0,2,7,8;2,7,8,9;7,8,9,10

$$$$

     RDKit          3D

 13 14  0  0  0  0  0  0  0  0999 V2000
  -27.8260   -7.4470  -31.2760 C   0  0  0  0  0  0  0  0  0  0  0  0
  -28.0650   -6.9340  -32.5170 N   0  0  0  0  0  0  0  0  0  0  0  0
  -27.3560   -8.8660  -31.1200 N   0  0  0  0  0  0  0  0  0  0  0  0
  -28.4360   -5.6470  -32.3790 C   0  0  0  0  0  0  0  0  0  0  0  0
  -28.4220   -5.3780  -31.0450 N   0  0  0  0  0  0  0  0  0  0  0  0
  -28.0560   -6.4640  -30.3870 N   0  0  0  0  0  0  0  0  0  0  0  0
  -27.6330   -6.7300  -28.9850 C   0  0  0  0  0  0  0  0  0  0  0  0
  -28.2820   -9.9840  -30.6610 C   0  0  2  0  0  0  0  0  0  0  0  0
  -27.6880  -11.1820  -31.3910 C   0  0  0  0  0  0  0  0  0  0  0  0
  -28.5600  -12.2320  -31.2340 O   0  0  0  0  0  0  0  0  0  0  0  0
  -29.7550  -11.7970  -30.7260 C   0  0  0  0  0  0  0  0  0  0  0  0
  -29.7330  -10.2700  -30.7620 C   0  0  0  0  0  0  0  0  0  0  0  0
  -28.8150   -7.3670  -28.2960 C   0  0  0  0  0  0  0  0  0  0  0  0
  1  2  2  0
  1  3  1  0
  1  6  1  0
  2  4  1  0
  8  3  1  6
  4  5  2  0
  5  6  1  0
  6  7  1  0
  8  9  1  0
  8 12  1  0
  9 10  1  0
 10 11  1  0
 11 12  1  0
  7 13  1  0
M  END
>  <name>  (216) 
Car Nac Nd0 Car Nac Nac Cs3 C3r C3r O_a C3r C3r Cs3

>  <indices>  (216) 
[0, 1, 2]

>  <tasks>  (216) 
probe_placing close_aromatic_ring close_aromatic_ring close_aromatic_ring ring_built build_to_Nac build_to_Nd0 close_aliphatic_ring close_aliphatic_ring close_aliphatic_ring close_aliphatic_ring

>  <prot_clashes>  (216) 
12

>  <NBS phar>  (216) 
0.26000000000000006

>  <NBS_non-phar>  (216) 
0.6105455618638259

>  <NBS>  (216) 
0.870545561863826

>  <source_stage>  (216) 
scored

>  <source_iter>  (216) 
10

>  <source_parent_mol>  (216) 
0

>  <source_scenario>  (216) 
1 2 3 1 0 7 0 0 3 0

>  <source_rank_in_scored_call>  (216) 
2

>  <source_current_task>  (216) 
no_task

>  <scenario>  (216) 
1 2 3 1 0 7 0 0 3

>  <protected_ring_attachments>  (216) 
3,1,0,2|1,0,2;4,5,0,2|5,0,2;9,8,7,2|8,7,2;10,11,7,2|11,7,2

>  <current_task>  (216) 
no_task

>  <rotatable_bond_torsions>  (216) 
1,0,2,7;0,2,7,8

$$$$

     RDKit          3D

 13 14  0  0  0  0  0  0  0  0999 V2000
  -27.8990   -6.7510  -30.5270 C   0  0  0  0  0  0  0  0  0  0  0  0
  -27.4790   -7.2180  -31.7370 N   0  0  0  0  0  0  0  0  0  0  0  0
  -27.4460   -7.4170  -29.2580 N   0  0  0  0  0  0  0  0  0  0  0  0
  -27.9960   -6.4290  -32.6980 C   0  0  0  0  0  0  0  0  0  0  0  0
  -28.7350   -5.4780  -32.0650 N   0  0  0  0  0  0  0  0  0  0  0  0
  -28.6750   -5.6770  -30.7600 N   0  0  0  0  0  0  0  0  0  0  0  0
  -29.0550   -4.8650  -29.5720 C   0  0  0  0  0  0  0  0  0  0  0  0
  -28.3500   -8.3400  -28.4540 C   0  0  2  0  0  0  0  0  0  0  0  0
  -27.3360   -9.3050  -27.8530 C   0  0  0  0  0  0  0  0  0  0  0  0
  -28.0390  -10.3290  -27.2690 O   0  0  0  0  0  0  0  0  0  0  0  0
  -29.3560  -10.2870  -27.6420 C   0  0  0  0  0  0  0  0  0  0  0  0
  -29.4760   -9.2540  -28.7620 C   0  0  0  0  0  0  0  0  0  0  0  0
  -28.6190   -3.3530  -29.6400 C   0  0  0  0  0  0  0  0  0  0  0  0
  1  2  2  0
  1  6  1  0
  1  3  1  0
  2  4  1  0
  8  3  1  6
  4  5  2  0
  5  6  1  0
  6  7  1  0
  8 12  1  0
  8  9  1  0
  9 10  1  0
 10 11  1  0
 11 12  1  0
  7 13  1  0
M  END
>  <name>  (217) 
Car Nac Nd0 Car Nac Nac Cs3 C3r C3r O_a C3r C3r Cs3

>  <indices>  (217) 
[0, 1, 2]

>  <tasks>  (217) 
probe_placing close_aromatic_ring close_aromatic_ring close_aromatic_ring ring_built build_to_Nac build_to_Nd0 close_aliphatic_ring close_aliphatic_ring close_aliphatic_ring close_aliphatic_ring

>  <prot_clashes>  (217) 
6

>  <NBS phar>  (217) 
0.12

>  <NBS_non-phar>  (217) 
0.5212779778700608

>  <NBS>  (217) 
0.6412779778700608

>  <source_stage>  (217) 
scored

>  <source_iter>  (217) 
10

>  <source_parent_mol>  (217) 
0

>  <source_scenario>  (217) 
1 2 3 1 0 7 0 0 3 0

>  <source_rank_in_scored_call>  (217) 
44

>  <source_current_task>  (217) 
no_task

>  <scenario>  (217) 
1 2 3 1 0 7 0 0 3

>  <protected_ring_attachments>  (217) 
3,1,0,2|1,0,2;4,5,0,2|5,0,2;9,8,7,2|8,7,2;10,11,7,2|11,7,2

>  <current_task>  (217) 
no_task

>  <rotatable_bond_torsions>  (217) 
1,0,2,7;0,2,7,8

$$$$

     RDKit          3D

 13 14  0  0  0  0  0  0  0  0999 V2000
  -27.9080   -7.0180  -30.7160 C   0  0  0  0  0  0  0  0  0  0  0  0
  -27.6840   -6.9430  -32.0590 N   0  0  0  0  0  0  0  0  0  0  0  0
  -27.6040   -8.2840  -29.9650 N   0  0  0  0  0  0  0  0  0  0  0  0
  -28.0020   -5.7020  -32.4730 C   0  0  0  0  0  0  0  0  0  0  0  0
  -28.4230   -5.0210  -31.3730 N   0  0  0  0  0  0  0  0  0  0  0  0
  -28.3660   -5.8170  -30.3200 N   0  0  0  0  0  0  0  0  0  0  0  0
  -28.4560   -5.5950  -28.8500 C   0  0  0  0  0  0  0  0  0  0  0  0
  -28.6940   -9.2460  -29.5140 C   0  0  2  0  0  0  0  0  0  0  0  0
  -27.9610  -10.5800  -29.5770 C   0  0  0  0  0  0  0  0  0  0  0  0
  -28.8960  -11.5710  -29.3970 O   0  0  0  0  0  0  0  0  0  0  0  0
  -30.1640  -11.0630  -29.4900 C   0  0  0  0  0  0  0  0  0  0  0  0
  -30.0410   -9.6280  -30.0030 C   0  0  0  0  0  0  0  0  0  0  0  0
  -29.4140   -4.4760  -28.5020 C   0  0  0  0  0  0  0  0  0  0  0  0
  1  2  2  0
  1  6  1  0
  1  3  1  0
  2  4  1  0
  8  3  1  6
  4  5  2  0
  5  6  1  0
  6  7  1  0
  8 12  1  0
  8  9  1  0
  9 10  1  0
 10 11  1  0
 11 12  1  0
  7 13  1  0
M  END
>  <name>  (218) 
Car Nac Nd0 Car Nac Nac Cs3 C3r C3r O_a C3r C3r Cs3

>  <indices>  (218) 
[0, 1, 2]

>  <tasks>  (218) 
probe_placing close_aromatic_ring close_aromatic_ring close_aromatic_ring ring_built build_to_Nac build_to_Nd0 close_aliphatic_ring close_aliphatic_ring close_aliphatic_ring close_aliphatic_ring

>  <prot_clashes>  (218) 
12

>  <NBS phar>  (218) 
0.12

>  <NBS_non-phar>  (218) 
0.4476005480839656

>  <NBS>  (218) 
0.5676005480839657

>  <source_stage>  (218) 
scored

>  <source_iter>  (218) 
10

>  <source_parent_mol>  (218) 
0

>  <source_scenario>  (218) 
1 2 3 1 0 7 0 0 3 0

>  <source_rank_in_scored_call>  (218) 
48

>  <source_current_task>  (218) 
no_task

>  <scenario>  (218) 
1 2 3 1 0 7 0 0 3

>  <protected_ring_attachments>  (218) 
3,1,0,2|1,0,2;4,5,0,2|5,0,2;9,8,7,2|8,7,2;10,11,7,2|11,7,2

>  <current_task>  (218) 
no_task

>  <rotatable_bond_torsions>  (218) 
1,0,2,7;0,2,7,8

$$$$

     RDKit          3D

 13 14  0  0  0  0  0  0  0  0999 V2000
  -27.8920   -7.4900  -31.3340 C   0  0  0  0  0  0  0  0  0  0  0  0
  -28.0790   -6.7830  -32.4840 N   0  0  0  0  0  0  0  0  0  0  0  0
  -27.6630   -8.9750  -31.3820 N   0  0  0  0  0  0  0  0  0  0  0  0
  -28.2250   -5.4840  -32.1660 C   0  0  0  0  0  0  0  0  0  0  0  0
  -28.1270   -5.4040  -30.8110 N   0  0  0  0  0  0  0  0  0  0  0  0
  -27.9270   -6.6120  -30.3170 N   0  0  0  0  0  0  0  0  0  0  0  0
  -27.5130   -7.1260  -28.9840 C   0  0  0  0  0  0  0  0  0  0  0  0
  -28.8220   -9.9960  -31.2800 C   0  0  1  0  0  0  0  0  0  0  0  0
  -27.9150  -11.1930  -31.4040 C   0  0  0  0  0  0  0  0  0  0  0  0
  -28.8030  -12.4040  -31.5670 C   0  0  0  0  0  0  0  0  0  0  0  0
  -29.6530  -12.5500  -30.4660 O   0  0  0  0  0  0  0  0  0  0  0  0
  -30.4770  -11.4820  -30.2840 C   0  0  0  0  0  0  0  0  0  0  0  0
  -29.6920  -10.2290  -30.0610 C   0  0  0  0  0  0  0  0  0  0  0  0
  1  2  2  0
  1  3  1  0
  1  6  1  0
  2  4  1  0
  8  3  1  1
  4  5  2  0
  5  6  1  0
  6  7  1  0
  8  9  1  0
  8 13  1  0
  9 10  1  0
 10 11  1  0
 11 12  1  0
 12 13  1  0
M  END
>  <name>  (219) 
Car Nac Nd0 Car Nac Nac Cs3 C3r C3r C3r O_a C3r C3r

>  <indices>  (219) 
[0, 1, 2]

>  <tasks>  (219) 
probe_placing close_aromatic_ring close_aromatic_ring close_aromatic_ring ring_built build_to_Nac build_to_Nd0 close_aliphatic_ring close_aliphatic_ring close_aliphatic_ring close_aliphatic_ring

>  <prot_clashes>  (219) 
9

>  <NBS phar>  (219) 
0.22000000000000003

>  <NBS_non-phar>  (219) 
0.7434060023381159

>  <NBS>  (219) 
0.9634060023381159

>  <source_stage>  (219) 
scored

>  <source_iter>  (219) 
10

>  <source_parent_mol>  (219) 
1

>  <source_scenario>  (219) 
1 2 3 1 0 7 0 3 0 1

>  <source_rank_in_scored_call>  (219) 
0

>  <source_current_task>  (219) 
close_aliphatic_ring

>  <scenario>  (219) 
1 2 3 1 0 7 0 3 0

>  <protected_ring_attachments>  (219) 
3,1,0,2|1,0,2;4,5,0,2|5,0,2

>  <current_task>  (219) 
no_task

>  <rotatable_bond_torsions>  (219) 
1,0,2,7;0,2,7,8;2,7,8,9;7,8,9,10;8,9,10,11

$$$$

     RDKit          3D

 14 15  0  0  0  0  0  0  0  0999 V2000
  -27.8300   -7.7030  -31.3850 C   0  0  0  0  0  0  0  0  0  0  0  0
  -28.0690   -6.9770  -32.5130 N   0  0  0  0  0  0  0  0  0  0  0  0
  -27.6180   -9.1890  -31.4660 N   0  0  0  0  0  0  0  0  0  0  0  0
  -28.1850   -5.6820  -32.1680 C   0  0  0  0  0  0  0  0  0  0  0  0
  -28.0160   -5.6230  -30.8190 N   0  0  0  0  0  0  0  0  0  0  0  0
  -27.8030   -6.8410  -30.3540 N   0  0  0  0  0  0  0  0  0  0  0  0
  -27.3250   -7.3780  -29.0530 C   0  0  0  0  0  0  0  0  0  0  0  0
  -28.7800  -10.2010  -31.3190 C   0  0  1  0  0  0  0  0  0  0  0  0
  -27.8930  -11.4040  -31.5080 C   0  0  0  0  0  0  0  0  0  0  0  0
  -28.8000  -12.6050  -31.6420 C   0  0  0  0  0  0  0  0  0  0  0  0
  -29.5930  -12.7590  -30.5000 O   0  0  0  0  0  0  0  0  0  0  0  0
  -30.3960  -11.6870  -30.2590 C   0  0  0  0  0  0  0  0  0  0  0  0
  -29.5880  -10.4450  -30.0590 C   0  0  0  0  0  0  0  0  0  0  0  0
  -28.5000   -7.1910  -28.0480 C   0  0  0  0  0  0  0  0  0  0  0  0
  1  2  2  0
  1  3  1  0
  1  6  1  0
  2  4  1  0
  8  3  1  1
  4  5  2  0
  5  6  1  0
  6  7  1  0
  8  9  1  0
  8 13  1  0
  9 10  1  0
 10 11  1  0
 11 12  1  0
 12 13  1  0
  7 14  1  0
M  END
>  <name>  (220) 
Car Nac Nd0 Car Nac Nac Cs3 C3r C3r C3r O_a C3r C3r Cs3

>  <indices>  (220) 
[0, 1, 2]

>  <tasks>  (220) 
probe_placing close_aromatic_ring close_aromatic_ring close_aromatic_ring ring_built build_to_Nac build_to_Nd0 close_aliphatic_ring close_aliphatic_ring close_aliphatic_ring close_aliphatic_ring close_aliphatic_ring

>  <prot_clashes>  (220) 
11

>  <NBS phar>  (220) 
0.36000000000000004

>  <NBS_non-phar>  (220) 
0.6979861259460449

>  <NBS>  (220) 
1.057986125946045

>  <source_stage>  (220) 
scored

>  <source_iter>  (220) 
11

>  <source_parent_mol>  (220) 
0

>  <source_scenario>  (220) 
1 2 3 1 0 7 0 3 0 1 0

>  <source_rank_in_scored_call>  (220) 
8

>  <source_current_task>  (220) 
no_task

>  <scenario>  (220) 
1 2 3 1 0 7 0 3 0 1

>  <protected_ring_attachments>  (220) 
3,1,0,2|1,0,2;4,5,0,2|5,0,2;9,8,7,2|8,7,2;11,12,7,2|12,7,2

>  <current_task>  (220) 
no_task

>  <rotatable_bond_torsions>  (220) 
1,0,2,7;0,2,7,8

$$$$

     RDKit          3D

 14 15  0  0  0  0  0  0  0  0999 V2000
  -27.8570   -7.5520  -31.3700 C   0  0  0  0  0  0  0  0  0  0  0  0
  -28.0640   -6.8430  -32.5150 N   0  0  0  0  0  0  0  0  0  0  0  0
  -27.6410   -9.0390  -31.4240 N   0  0  0  0  0  0  0  0  0  0  0  0
  -28.1920   -5.5430  -32.1930 C   0  0  0  0  0  0  0  0  0  0  0  0
  -28.0630   -5.4650  -30.8400 N   0  0  0  0  0  0  0  0  0  0  0  0
  -27.8610   -6.6750  -30.3520 N   0  0  0  0  0  0  0  0  0  0  0  0
  -27.4220   -7.1930  -29.0290 C   0  0  0  0  0  0  0  0  0  0  0  0
  -28.8050  -10.0510  -31.2960 C   0  0  1  0  0  0  0  0  0  0  0  0
  -27.9110  -11.2550  -31.4410 C   0  0  0  0  0  0  0  0  0  0  0  0
  -28.8130  -12.4590  -31.5850 C   0  0  0  0  0  0  0  0  0  0  0  0
  -29.6390  -12.5990  -30.4650 O   0  0  0  0  0  0  0  0  0  0  0  0
  -30.4500  -11.5240  -30.2640 C   0  0  0  0  0  0  0  0  0  0  0  0
  -29.6500  -10.2780  -30.0580 C   0  0  0  0  0  0  0  0  0  0  0  0
  -28.6390   -7.3640  -28.1590 C   0  0  0  0  0  0  0  0  0  0  0  0
  1  2  2  0
  1  3  1  0
  1  6  1  0
  2  4  1  0
  8  3  1  1
  4  5  2  0
  5  6  1  0
  6  7  1  0
  8  9  1  0
  8 13  1  0
  9 10  1  0
 10 11  1  0
 11 12  1  0
 12 13  1  0
  7 14  1  0
M  END
>  <name>  (221) 
Car Nac Nd0 Car Nac Nac Cs3 C3r C3r C3r O_a C3r C3r Cs3

>  <indices>  (221) 
[0, 1, 2]

>  <tasks>  (221) 
probe_placing close_aromatic_ring close_aromatic_ring close_aromatic_ring ring_built build_to_Nac build_to_Nd0 close_aliphatic_ring close_aliphatic_ring close_aliphatic_ring close_aliphatic_ring close_aliphatic_ring

>  <prot_clashes>  (221) 
9

>  <NBS phar>  (221) 
0.32

>  <NBS_non-phar>  (221) 
0.7141061510358538

>  <NBS>  (221) 
1.0341061510358538

>  <source_stage>  (221) 
scored

>  <source_iter>  (221) 
11

>  <source_parent_mol>  (221) 
0

>  <source_scenario>  (221) 
1 2 3 1 0 7 0 3 0 1 0

>  <source_rank_in_scored_call>  (221) 
15

>  <source_current_task>  (221) 
no_task

>  <scenario>  (221) 
1 2 3 1 0 7 0 3 0 1

>  <protected_ring_attachments>  (221) 
3,1,0,2|1,0,2;4,5,0,2|5,0,2;9,8,7,2|8,7,2;11,12,7,2|12,7,2

>  <current_task>  (221) 
no_task

>  <rotatable_bond_torsions>  (221) 
1,0,2,7;0,2,7,8

$$$$

     RDKit          3D

 14 15  0  0  0  0  0  0  0  0999 V2000
  -27.8570   -7.5250  -31.3690 C   0  0  0  0  0  0  0  0  0  0  0  0
  -28.0630   -6.8170  -32.5140 N   0  0  0  0  0  0  0  0  0  0  0  0
  -27.6410   -9.0120  -31.4220 N   0  0  0  0  0  0  0  0  0  0  0  0
  -28.1910   -5.5170  -32.1930 C   0  0  0  0  0  0  0  0  0  0  0  0
  -28.0630   -5.4380  -30.8400 N   0  0  0  0  0  0  0  0  0  0  0  0
  -27.8620   -6.6470  -30.3510 N   0  0  0  0  0  0  0  0  0  0  0  0
  -27.4230   -7.1650  -29.0280 C   0  0  0  0  0  0  0  0  0  0  0  0
  -28.8060  -10.0240  -31.2950 C   0  0  1  0  0  0  0  0  0  0  0  0
  -27.9120  -11.2280  -31.4390 C   0  0  0  0  0  0  0  0  0  0  0  0
  -28.8130  -12.4320  -31.5820 C   0  0  0  0  0  0  0  0  0  0  0  0
  -29.6400  -12.5710  -30.4630 O   0  0  0  0  0  0  0  0  0  0  0  0
  -30.4510  -11.4960  -30.2630 C   0  0  0  0  0  0  0  0  0  0  0  0
  -29.6510  -10.2500  -30.0570 C   0  0  0  0  0  0  0  0  0  0  0  0
  -28.6670   -7.3920  -28.1570 C   0  0  0  0  0  0  0  0  0  0  0  0
  1  2  2  0
  1  3  1  0
  1  6  1  0
  2  4  1  0
  8  3  1  1
  4  5  2  0
  5  6  1  0
  6  7  1  0
  8  9  1  0
  8 13  1  0
  9 10  1  0
 10 11  1  0
 11 12  1  0
 12 13  1  0
  7 14  1  0
M  END
>  <name>  (222) 
Car Nac Nd0 Car Nac Nac Cs3 C3r C3r C3r O_a C3r C3r Cs3

>  <indices>  (222) 
[0, 1, 2]

>  <tasks>  (222) 
probe_placing close_aromatic_ring close_aromatic_ring close_aromatic_ring ring_built build_to_Nac build_to_Nd0 close_aliphatic_ring close_aliphatic_ring close_aliphatic_ring close_aliphatic_ring close_aliphatic_ring

>  <prot_clashes>  (222) 
9

>  <NBS phar>  (222) 
0.3

>  <NBS_non-phar>  (222) 
0.7041544914245605

>  <NBS>  (222) 
1.0041544914245606

>  <source_stage>  (222) 
scored

>  <source_iter>  (222) 
11

>  <source_parent_mol>  (222) 
0

>  <source_scenario>  (222) 
1 2 3 1 0 7 0 3 0 1 0

>  <source_rank_in_scored_call>  (222) 
27

>  <source_current_task>  (222) 
no_task

>  <scenario>  (222) 
1 2 3 1 0 7 0 3 0 1

>  <protected_ring_attachments>  (222) 
3,1,0,2|1,0,2;4,5,0,2|5,0,2;9,8,7,2|8,7,2;11,12,7,2|12,7,2

>  <current_task>  (222) 
no_task

>  <rotatable_bond_torsions>  (222) 
1,0,2,7;0,2,7,8

$$$$

     RDKit          3D

 14 15  0  0  0  0  0  0  0  0999 V2000
  -27.8700   -7.5220  -31.3580 C   0  0  0  0  0  0  0  0  0  0  0  0
  -28.0610   -6.8230  -32.5120 N   0  0  0  0  0  0  0  0  0  0  0  0
  -27.6510   -9.0090  -31.3960 N   0  0  0  0  0  0  0  0  0  0  0  0
  -28.1970   -5.5200  -32.2030 C   0  0  0  0  0  0  0  0  0  0  0  0
  -28.0890   -5.4310  -30.8500 N   0  0  0  0  0  0  0  0  0  0  0  0
  -27.8930   -6.6360  -30.3480 N   0  0  0  0  0  0  0  0  0  0  0  0
  -27.4720   -7.1420  -29.0140 C   0  0  0  0  0  0  0  0  0  0  0  0
  -28.8150  -10.0220  -31.2780 C   0  0  1  0  0  0  0  0  0  0  0  0
  -27.9160  -11.2250  -31.3990 C   0  0  0  0  0  0  0  0  0  0  0  0
  -28.8130  -12.4320  -31.5470 C   0  0  0  0  0  0  0  0  0  0  0  0
  -29.6550  -12.5640  -30.4390 O   0  0  0  0  0  0  0  0  0  0  0  0
  -30.4720  -11.4900  -30.2590 C   0  0  0  0  0  0  0  0  0  0  0  0
  -29.6780  -10.2400  -30.0510 C   0  0  0  0  0  0  0  0  0  0  0  0
  -28.7220   -7.6520  -28.3390 C   0  0  0  0  0  0  0  0  0  0  0  0
  1  2  2  0
  1  3  1  0
  1  6  1  0
  2  4  1  0
  8  3  1  1
  4  5  2  0
  5  6  1  0
  6  7  1  0
  8  9  1  0
  8 13  1  0
  9 10  1  0
 10 11  1  0
 11 12  1  0
 12 13  1  0
  7 14  1  0
M  END
>  <name>  (223) 
Car Nac Nd0 Car Nac Nac Cs3 C3r C3r C3r O_a C3r C3r Cs3

>  <indices>  (223) 
[0, 1, 2]

>  <tasks>  (223) 
probe_placing close_aromatic_ring close_aromatic_ring close_aromatic_ring ring_built build_to_Nac build_to_Nd0 close_aliphatic_ring close_aliphatic_ring close_aliphatic_ring close_aliphatic_ring close_aliphatic_ring

>  <prot_clashes>  (223) 
9

>  <NBS phar>  (223) 
0.22000000000000003

>  <NBS_non-phar>  (223) 
0.7426960127694267

>  <NBS>  (223) 
0.9626960127694266

>  <source_stage>  (223) 
scored

>  <source_iter>  (223) 
11

>  <source_parent_mol>  (223) 
0

>  <source_scenario>  (223) 
1 2 3 1 0 7 0 3 0 1 0

>  <source_rank_in_scored_call>  (223) 
45

>  <source_current_task>  (223) 
no_task

>  <scenario>  (223) 
1 2 3 1 0 7 0 3 0 1

>  <protected_ring_attachments>  (223) 
3,1,0,2|1,0,2;4,5,0,2|5,0,2;9,8,7,2|8,7,2;11,12,7,2|12,7,2

>  <current_task>  (223) 
no_task

>  <rotatable_bond_torsions>  (223) 
1,0,2,7;0,2,7,8

$$$$

     RDKit          3D

 15 16  0  0  0  0  0  0  0  0999 V2000
  -27.8660   -7.4870  -31.2480 C   0  0  0  0  0  0  0  0  0  0  0  0
  -28.0620   -7.0040  -32.5100 N   0  0  0  0  0  0  0  0  0  0  0  0
  -27.4600   -8.9200  -31.0390 N   0  0  0  0  0  0  0  0  0  0  0  0
  -28.3830   -5.7010  -32.4200 C   0  0  0  0  0  0  0  0  0  0  0  0
  -28.3790   -5.3910  -31.0940 N   0  0  0  0  0  0  0  0  0  0  0  0
  -28.0690   -6.4680  -30.3970 N   0  0  0  0  0  0  0  0  0  0  0  0
  -27.6810   -6.7050  -28.9800 C   0  0  0  0  0  0  0  0  0  0  0  0
  -28.5090   -9.9350  -30.8720 C   0  0  1  0  0  0  0  0  0  0  0  0
  -27.8310  -11.2430  -31.1860 C   0  0  0  0  0  0  0  0  0  0  0  0
  -27.8000  -12.1900  -30.0030 C   0  0  0  0  0  0  0  0  0  0  0  0
  -29.5930  -12.4610  -29.5600 S   0  0  1  0  0  0  0  0  0  0  0  0
  -30.3100  -13.0010  -30.6170 O   0  0  0  0  0  0  0  0  0  0  0  0
  -29.5940  -13.4040  -28.3690 O   0  0  0  0  0  0  0  0  0  0  0  0
  -30.1830  -10.7470  -29.1720 C   0  0  0  0  0  0  0  0  0  0  0  0
  -29.9190   -9.9740  -30.4410 C   0  0  0  0  0  0  0  0  0  0  0  0
  1  2  2  0
  1  3  1  0
  1  6  1  0
  2  4  1  0
  8  3  1  1
  4  5  2  0
  5  6  1  0
  6  7  1  0
  8  9  1  0
  8 15  1  0
  9 10  1  0
 11 10  1  6
 11 12  2  0
 11 14  1  0
 11 13  2  0
 14 15  1  0
M  END
>  <name>  (224) 
Car Nac Nd0 Car Nac Nac Cs3 C3r C3r C3r SO2 .=O .=O C3r C3r

>  <indices>  (224) 
[0, 1, 2]

>  <tasks>  (224) 
probe_placing close_aromatic_ring close_aromatic_ring close_aromatic_ring ring_built build_to_Nac build_to_Nd0 close_aliphatic_ring close_aliphatic_ring close_aliphatic_ring build_.=O_to_SO2 build_.=O_to_SO2 close_aliphatic_ring

>  <prot_clashes>  (224) 
10

>  <NBS phar>  (224) 
0.4000000000000001

>  <NBS_non-phar>  (224) 
0.6259791056315104

>  <NBS>  (224) 
1.0259791056315104

>  <source_stage>  (224) 
scored

>  <source_iter>  (224) 
12

>  <source_parent_mol>  (224) 
0

>  <source_scenario>  (224) 
1 2 3 1 0 7 0 3 8 1 1 0

>  <source_rank_in_scored_call>  (224) 
0

>  <source_current_task>  (224) 
close_aliphatic_ring

>  <scenario>  (224) 
1 2 3 1 0 7 0 3 8 1 1

>  <protected_ring_attachments>  (224) 
3,1,0,2|1,0,2;4,5,0,2|5,0,2

>  <current_task>  (224) 
no_task

>  <rotatable_bond_torsions>  (224) 
1,0,2,7;0,2,7,8;2,7,8,9;7,8,9,10;8,9,10,13

$$$$

     RDKit          3D

 15 16  0  0  0  0  0  0  0  0999 V2000
  -27.9090   -7.3690  -31.2210 C   0  0  0  0  0  0  0  0  0  0  0  0
  -28.0630   -6.9580  -32.5130 N   0  0  0  0  0  0  0  0  0  0  0  0
  -27.6000   -8.8100  -30.9150 N   0  0  0  0  0  0  0  0  0  0  0  0
  -28.2970   -5.6350  -32.5120 C   0  0  0  0  0  0  0  0  0  0  0  0
  -28.2830   -5.2390  -31.2090 N   0  0  0  0  0  0  0  0  0  0  0  0
  -28.0500   -6.2860  -30.4400 N   0  0  0  0  0  0  0  0  0  0  0  0
  -27.6880   -6.4550  -29.0060 C   0  0  0  0  0  0  0  0  0  0  0  0
  -28.2910   -9.8050  -30.2510 C   0  0  2  0  0  0  0  0  0  0  0  0
  -28.0740  -11.1340  -30.8630 C   0  0  0  0  0  0  0  0  0  0  0  0
  -28.2090  -12.2710  -29.8820 C   0  0  0  0  0  0  0  0  0  0  0  0
  -29.9650  -12.1620  -29.2240 S   0  0  1  0  0  0  0  0  0  0  0  0
  -30.7170  -12.6580  -30.2630 O   0  0  0  0  0  0  0  0  0  0  0  0
  -30.0460  -12.9600  -27.9850 O   0  0  0  0  0  0  0  0  0  0  0  0
  -29.9880  -10.4650  -28.4750 C   0  0  0  0  0  0  0  0  0  0  0  0
  -29.6040   -9.5590  -29.6300 C   0  0  0  0  0  0  0  0  0  0  0  0
  1  2  2  0
  1  3  1  0
  1  6  1  0
  2  4  1  0
  8  3  1  6
  4  5  2  0
  5  6  1  0
  6  7  1  0
  8  9  1  0
  8 15  1  0
  9 10  1  0
 11 10  1  6
 11 12  2  0
 11 14  1  0
 11 13  2  0
 14 15  1  0
M  END
>  <name>  (225) 
Car Nac Nd0 Car Nac Nac Cs3 C3r C3r C3r SO2 .=O .=O C3r C3r

>  <indices>  (225) 
[0, 1, 2]

>  <tasks>  (225) 
probe_placing close_aromatic_ring close_aromatic_ring close_aromatic_ring ring_built build_to_Nac build_to_Nd0 close_aliphatic_ring close_aliphatic_ring close_aliphatic_ring build_.=O_to_SO2 build_.=O_to_SO2 close_aliphatic_ring

>  <prot_clashes>  (225) 
7

>  <NBS phar>  (225) 
0.15999999999999998

>  <NBS_non-phar>  (225) 
0.5343982060750325

>  <NBS>  (225) 
0.6943982060750324

>  <source_stage>  (225) 
scored

>  <source_iter>  (225) 
12

>  <source_parent_mol>  (225) 
0

>  <source_scenario>  (225) 
1 2 3 1 0 7 0 3 8 1 1 0

>  <source_rank_in_scored_call>  (225) 
3

>  <source_current_task>  (225) 
close_aliphatic_ring

>  <scenario>  (225) 
1 2 3 1 0 7 0 3 8 1 1

>  <protected_ring_attachments>  (225) 
3,1,0,2|1,0,2;4,5,0,2|5,0,2

>  <current_task>  (225) 
no_task

>  <rotatable_bond_torsions>  (225) 
1,0,2,7;0,2,7,8;2,7,8,9;7,8,9,10;8,9,10,13

$$$$

     RDKit          3D

 14 15  0  0  0  0  0  0  0  0999 V2000
  -27.9150   -7.5180  -31.3410 C   0  0  0  0  0  0  0  0  0  0  0  0
  -28.0660   -6.8370  -32.5140 N   0  0  0  0  0  0  0  0  0  0  0  0
  -27.6180   -8.9920  -31.3510 N   0  0  0  0  0  0  0  0  0  0  0  0
  -28.2860   -5.5430  -32.2290 C   0  0  0  0  0  0  0  0  0  0  0  0
  -28.2690   -5.4350  -30.8720 N   0  0  0  0  0  0  0  0  0  0  0  0
  -28.0470   -6.6250  -30.3440 N   0  0  0  0  0  0  0  0  0  0  0  0
  -27.6880   -7.1020  -28.9820 C   0  0  0  0  0  0  0  0  0  0  0  0
  -28.6070   -9.9760  -31.4050 C   0  0  1  0  0  0  0  0  0  0  0  0
  -27.8650  -11.2930  -31.5040 C   0  0  0  0  0  0  0  0  0  0  0  0
  -28.8590  -12.4290  -31.4120 C   0  0  0  0  0  0  0  0  0  0  0  0
  -29.5920  -12.3450  -30.0900 C   0  0  0  0  0  0  0  0  0  0  0  0
  -30.3120  -11.0280  -30.0040 C   0  0  0  0  0  0  0  0  0  0  0  0
  -29.3360   -9.9020  -30.0930 C   0  0  0  0  0  0  0  0  0  0  0  0
  -29.0420  -13.1890  -32.1280 O   0  0  0  0  0  0  0  0  0  0  0  0
  1  2  2  0
  1  3  1  0
  1  6  1  0
  2  4  1  0
  8  3  1  1
  4  5  2  0
  5  6  1  0
  6  7  1  0
  8  9  1  0
  8 13  1  0
  9 10  1  0
 10 14  2  0
 10 11  1  0
 11 12  1  0
 12 13  1  0
M  END
>  <name>  (226) 
Car Nac Nd0 Car Nac Nac Cs3 C3r C3r C2r C3r C3r C3r .=O

>  <indices>  (226) 
[0, 1, 2]

>  <tasks>  (226) 
probe_placing close_aromatic_ring close_aromatic_ring close_aromatic_ring ring_built build_to_Nac build_to_Nd0 close_aliphatic_ring close_aliphatic_ring close_aliphatic_ring close_aliphatic_ring close_aliphatic_ring

>  <prot_clashes>  (226) 
5

>  <NBS phar>  (226) 
0.36000000000000004

>  <NBS_non-phar>  (226) 
0.6591473988124302

>  <NBS>  (226) 
1.0191473988124302

>  <source_stage>  (226) 
scored

>  <source_iter>  (226) 
11

>  <source_parent_mol>  (226) 
1

>  <source_scenario>  (226) 
1 2 3 1 0 7 0 4 6 0 1

>  <source_rank_in_scored_call>  (226) 
0

>  <source_current_task>  (226) 
build_DB_to_Cs2

>  <scenario>  (226) 
1 2 3 1 0 7 0 4 6 0

>  <protected_ring_attachments>  (226) 
3,1,0,2|1,0,2;4,5,0,2|5,0,2;9,8,7,2|8,7,2;11,12,7,2|12,7,2

>  <current_task>  (226) 
no_task

>  <rotatable_bond_torsions>  (226) 
1,0,2,7;0,2,7,8

$$$$

     RDKit          3D

 14 15  0  0  0  0  0  0  0  0999 V2000
  -27.9080   -7.4920  -31.3570 C   0  0  0  0  0  0  0  0  0  0  0  0
  -28.0600   -6.7850  -32.5140 N   0  0  0  0  0  0  0  0  0  0  0  0
  -27.6030   -8.9640  -31.4010 N   0  0  0  0  0  0  0  0  0  0  0  0
  -28.2870   -5.4990  -32.1990 C   0  0  0  0  0  0  0  0  0  0  0  0
  -28.2740   -5.4230  -30.8390 N   0  0  0  0  0  0  0  0  0  0  0  0
  -28.0470   -6.6230  -30.3390 N   0  0  0  0  0  0  0  0  0  0  0  0
  -27.6890   -7.1300  -28.9880 C   0  0  0  0  0  0  0  0  0  0  0  0
  -28.5870   -9.9520  -31.4800 C   0  0  1  0  0  0  0  0  0  0  0  0
  -27.8370  -11.2620  -31.6080 C   0  0  0  0  0  0  0  0  0  0  0  0
  -28.8260  -12.4060  -31.5440 C   0  0  0  0  0  0  0  0  0  0  0  0
  -29.5630  -12.3560  -30.2230 C   0  0  0  0  0  0  0  0  0  0  0  0
  -30.2900  -11.0450  -30.1080 C   0  0  0  0  0  0  0  0  0  0  0  0
  -29.3200   -9.9120  -30.1680 C   0  0  0  0  0  0  0  0  0  0  0  0
  -28.9000  -13.3190  -32.2100 O   0  0  0  0  0  0  0  0  0  0  0  0
  1  2  2  0
  1  3  1  0
  1  6  1  0
  2  4  1  0
  8  3  1  1
  4  5  2  0
  5  6  1  0
  6  7  1  0
  8  9  1  0
  8 13  1  0
  9 10  1  0
 10 14  2  0
 10 11  1  0
 11 12  1  0
 12 13  1  0
M  END
>  <name>  (227) 
Car Nac Nd0 Car Nac Nac Cs3 C3r C3r C2r C3r C3r C3r .=O

>  <indices>  (227) 
[0, 1, 2]

>  <tasks>  (227) 
probe_placing close_aromatic_ring close_aromatic_ring close_aromatic_ring ring_built build_to_Nac build_to_Nd0 close_aliphatic_ring close_aliphatic_ring close_aliphatic_ring close_aliphatic_ring close_aliphatic_ring

>  <prot_clashes>  (227) 
5

>  <NBS phar>  (227) 
0.36000000000000004

>  <NBS_non-phar>  (227) 
0.639815126146589

>  <NBS>  (227) 
0.9998151261465891

>  <source_stage>  (227) 
scored

>  <source_iter>  (227) 
11

>  <source_parent_mol>  (227) 
1

>  <source_scenario>  (227) 
1 2 3 1 0 7 0 4 6 0 1

>  <source_rank_in_scored_call>  (227) 
1

>  <source_current_task>  (227) 
build_DB_to_Cs2

>  <scenario>  (227) 
1 2 3 1 0 7 0 4 6 0

>  <protected_ring_attachments>  (227) 
3,1,0,2|1,0,2;4,5,0,2|5,0,2;9,8,7,2|8,7,2;11,12,7,2|12,7,2

>  <current_task>  (227) 
no_task

>  <rotatable_bond_torsions>  (227) 
1,0,2,7;0,2,7,8

$$$$

     RDKit          3D

 14 15  0  0  0  0  0  0  0  0999 V2000
  -27.9130   -7.4970  -31.3430 C   0  0  0  0  0  0  0  0  0  0  0  0
  -28.0620   -6.8130  -32.5140 N   0  0  0  0  0  0  0  0  0  0  0  0
  -27.6160   -8.9710  -31.3560 N   0  0  0  0  0  0  0  0  0  0  0  0
  -28.2820   -5.5190  -32.2250 C   0  0  0  0  0  0  0  0  0  0  0  0
  -28.2660   -5.4150  -30.8680 N   0  0  0  0  0  0  0  0  0  0  0  0
  -28.0450   -6.6070  -30.3430 N   0  0  0  0  0  0  0  0  0  0  0  0
  -27.6890   -7.0870  -28.9820 C   0  0  0  0  0  0  0  0  0  0  0  0
  -28.6060   -9.9550  -31.4140 C   0  0  1  0  0  0  0  0  0  0  0  0
  -27.8650  -11.2720  -31.5150 C   0  0  0  0  0  0  0  0  0  0  0  0
  -28.8600  -12.4080  -31.4270 C   0  0  0  0  0  0  0  0  0  0  0  0
  -29.5940  -12.3260  -30.1060 C   0  0  0  0  0  0  0  0  0  0  0  0
  -30.3140  -11.0090  -30.0180 C   0  0  0  0  0  0  0  0  0  0  0  0
  -29.3370   -9.8830  -30.1020 C   0  0  0  0  0  0  0  0  0  0  0  0
  -28.7660  -13.2590  -32.1370 O   0  0  0  0  0  0  0  0  0  0  0  0
  1  2  2  0
  1  3  1  0
  1  6  1  0
  2  4  1  0
  8  3  1  1
  4  5  2  0
  5  6  1  0
  6  7  1  0
  8  9  1  0
  8 13  1  0
  9 10  1  0
 10 14  2  0
 10 11  1  0
 11 12  1  0
 12 13  1  0
M  END
>  <name>  (228) 
Car Nac Nd0 Car Nac Nac Cs3 C3r C3r C2r C3r C3r C3r .=O

>  <indices>  (228) 
[0, 1, 2]

>  <tasks>  (228) 
probe_placing close_aromatic_ring close_aromatic_ring close_aromatic_ring ring_built build_to_Nac build_to_Nd0 close_aliphatic_ring close_aliphatic_ring close_aliphatic_ring close_aliphatic_ring close_aliphatic_ring

>  <prot_clashes>  (228) 
5

>  <NBS phar>  (228) 
0.2800000000000001

>  <NBS_non-phar>  (228) 
0.6129027094159808

>  <NBS>  (228) 
0.8929027094159809

>  <source_stage>  (228) 
scored

>  <source_iter>  (228) 
11

>  <source_parent_mol>  (228) 
1

>  <source_scenario>  (228) 
1 2 3 1 0 7 0 4 6 0 1

>  <source_rank_in_scored_call>  (228) 
4

>  <source_current_task>  (228) 
build_DB_to_Cs2

>  <scenario>  (228) 
1 2 3 1 0 7 0 4 6 0

>  <protected_ring_attachments>  (228) 
3,1,0,2|1,0,2;4,5,0,2|5,0,2;9,8,7,2|8,7,2;11,12,7,2|12,7,2

>  <current_task>  (228) 
no_task

>  <rotatable_bond_torsions>  (228) 
1,0,2,7;0,2,7,8

$$$$

     RDKit          3D

 13 14  0  0  0  0  0  0  0  0999 V2000
  -28.2920   -6.6830  -30.3520 C   0  0  0  0  0  0  0  0  0  0  0  0
  -27.6170   -6.7400  -31.5360 N   0  0  0  0  0  0  0  0  0  0  0  0
  -28.3560   -7.8890  -29.4570 N   0  0  0  0  0  0  0  0  0  0  0  0
  -27.6850   -5.5300  -32.1210 C   0  0  0  0  0  0  0  0  0  0  0  0
  -28.4070   -4.7350  -31.2860 N   0  0  0  0  0  0  0  0  0  0  0  0
  -28.7720   -5.4330  -30.2250 N   0  0  0  0  0  0  0  0  0  0  0  0
  -29.3430   -5.0740  -28.8990 C   0  0  0  0  0  0  0  0  0  0  0  0
  -29.1330   -9.1300  -29.7310 C   0  0  2  0  0  0  0  0  0  0  0  0
  -29.3370  -10.0700  -28.5450 C   0  0  0  0  0  0  0  0  0  0  0  0
  -30.3070  -11.1530  -28.9800 C   0  0  0  0  0  0  0  0  0  0  0  0
  -29.8120  -11.8600  -30.0740 O   0  0  0  0  0  0  0  0  0  0  0  0
  -29.5820  -11.0340  -31.1810 C   0  0  0  0  0  0  0  0  0  0  0  0
  -28.5620   -9.9460  -30.8800 C   0  0  0  0  0  0  0  0  0  0  0  0
  1  2  2  0
  1  6  1  0
  1  3  1  0
  2  4  1  0
  8  3  1  1
  4  5  2  0
  5  6  1  0
  6  7  1  0
  8 13  1  0
  8  9  1  0
  9 10  1  0
 10 11  1  0
 11 12  1  0
 12 13  1  0
M  END
>  <name>  (229) 
Car Nac Nd0 Car Nac Nac Cs3 C3r C3r C3r O_a C3r C3r

>  <indices>  (229) 
[0, 1, 2]

>  <tasks>  (229) 
probe_placing close_aromatic_ring close_aromatic_ring close_aromatic_ring ring_built build_to_Nac build_to_Nd0 close_aliphatic_ring close_aliphatic_ring close_aliphatic_ring close_aliphatic_ring

>  <prot_clashes>  (229) 
4

>  <NBS phar>  (229) 
0.06000000000000001

>  <NBS_non-phar>  (229) 
0.4637288313645583

>  <NBS>  (229) 
0.5237288313645583

>  <source_stage>  (229) 
scored

>  <source_iter>  (229) 
10

>  <source_parent_mol>  (229) 
0

>  <source_scenario>  (229) 
1 2 3 1 0 7 0 6 0 0

>  <source_rank_in_scored_call>  (229) 
2

>  <source_current_task>  (229) 
close_aliphatic_ring

>  <scenario>  (229) 
1 2 3 1 0 7 0 6 0

>  <protected_ring_attachments>  (229) 
3,1,0,2|1,0,2;4,5,0,2|5,0,2

>  <current_task>  (229) 
no_task

>  <rotatable_bond_torsions>  (229) 
1,0,2,7;0,2,7,8;2,7,8,9;7,8,9,10;8,9,10,11

$$$$

     RDKit          3D

 14 15  0  0  0  0  0  0  0  0999 V2000
  -28.2390   -6.4500  -30.7640 C   0  0  0  0  0  0  0  0  0  0  0  0
  -27.3590   -6.6210  -31.7920 N   0  0  0  0  0  0  0  0  0  0  0  0
  -28.4600   -7.5510  -29.7650 N   0  0  0  0  0  0  0  0  0  0  0  0
  -27.3250   -5.4850  -32.5130 C   0  0  0  0  0  0  0  0  0  0  0  0
  -28.1910   -4.6210  -31.9180 N   0  0  0  0  0  0  0  0  0  0  0  0
  -28.7400   -5.2060  -30.8680 N   0  0  0  0  0  0  0  0  0  0  0  0
  -29.5450   -4.7170  -29.7160 C   0  0  0  0  0  0  0  0  0  0  0  0
  -29.1680   -8.8340  -30.0320 C   0  0  2  0  0  0  0  0  0  0  0  0
  -29.5810   -9.6420  -28.8040 C   0  0  0  0  0  0  0  0  0  0  0  0
  -30.4510  -10.7900  -29.2820 C   0  0  0  0  0  0  0  0  0  0  0  0
  -29.7610  -11.6010  -30.1810 O   0  0  0  0  0  0  0  0  0  0  0  0
  -29.3370  -10.8970  -31.3140 C   0  0  0  0  0  0  0  0  0  0  0  0
  -28.3940   -9.7570  -30.9590 C   0  0  0  0  0  0  0  0  0  0  0  0
  -29.1210   -5.2910  -28.4010 C   0  0  0  0  0  0  0  0  0  0  0  0
  1  2  2  0
  1  6  1  0
  1  3  1  0
  2  4  1  0
  8  3  1  1
  4  5  2  0
  5  6  1  0
  6  7  1  0
  8 13  1  0
  8  9  1  0
  9 10  1  0
 10 11  1  0
 11 12  1  0
 12 13  1  0
  7 14  1  0
M  END
>  <name>  (230) 
Car Nac Nd0 Car Nac Nac Cs3 C3r C3r C3r O_a C3r C3r Cs3

>  <indices>  (230) 
[0, 1, 2]

>  <tasks>  (230) 
probe_placing close_aromatic_ring close_aromatic_ring close_aromatic_ring ring_built build_to_Nac build_to_Nd0 close_aliphatic_ring close_aliphatic_ring close_aliphatic_ring close_aliphatic_ring close_aliphatic_ring

>  <prot_clashes>  (230) 
7

>  <NBS phar>  (230) 
0.2800000000000001

>  <NBS_non-phar>  (230) 
0.4790600367954799

>  <NBS>  (230) 
0.7590600367954801

>  <source_stage>  (230) 
scored

>  <source_iter>  (230) 
11

>  <source_parent_mol>  (230) 
2

>  <source_scenario>  (230) 
1 2 3 1 0 7 0 6 0 0 2

>  <source_rank_in_scored_call>  (230) 
2

>  <source_current_task>  (230) 
no_task

>  <scenario>  (230) 
1 2 3 1 0 7 0 6 0 0

>  <protected_ring_attachments>  (230) 
3,1,0,2|1,0,2;4,5,0,2|5,0,2;9,8,7,2|8,7,2;11,12,7,2|12,7,2

>  <current_task>  (230) 
no_task

>  <rotatable_bond_torsions>  (230) 
1,0,2,7;0,2,7,8

$$$$

     RDKit          3D

 14 15  0  0  0  0  0  0  0  0999 V2000
  -28.2810   -6.6260  -30.5550 C   0  0  0  0  0  0  0  0  0  0  0  0
  -27.6390   -6.9110  -31.7250 N   0  0  0  0  0  0  0  0  0  0  0  0
  -28.3550   -7.6540  -29.4610 N   0  0  0  0  0  0  0  0  0  0  0  0
  -27.6880   -5.8210  -32.5120 C   0  0  0  0  0  0  0  0  0  0  0  0
  -28.3650   -4.8690  -31.8150 N   0  0  0  0  0  0  0  0  0  0  0  0
  -28.7220   -5.3580  -30.6400 N   0  0  0  0  0  0  0  0  0  0  0  0
  -29.2480   -4.7550  -29.3870 C   0  0  0  0  0  0  0  0  0  0  0  0
  -29.1740   -8.8980  -29.4960 C   0  0  2  0  0  0  0  0  0  0  0  0
  -29.3730   -9.6090  -28.1600 C   0  0  0  0  0  0  0  0  0  0  0  0
  -30.3840  -10.7200  -28.3770 C   0  0  0  0  0  0  0  0  0  0  0  0
  -29.9380  -11.6230  -29.3400 O   0  0  0  0  0  0  0  0  0  0  0  0
  -29.7130  -11.0110  -30.5790 C   0  0  0  0  0  0  0  0  0  0  0  0
  -28.6560   -9.9210  -30.4960 C   0  0  0  0  0  0  0  0  0  0  0  0
  -28.1090   -4.2050  -28.5540 C   0  0  0  0  0  0  0  0  0  0  0  0
  1  2  2  0
  1  6  1  0
  1  3  1  0
  2  4  1  0
  8  3  1  1
  4  5  2  0
  5  6  1  0
  6  7  1  0
  8 13  1  0
  8  9  1  0
  9 10  1  0
 10 11  1  0
 11 12  1  0
 12 13  1  0
  7 14  1  0
M  END
>  <name>  (231) 
Car Nac Nd0 Car Nac Nac Cs3 C3r C3r C3r O_a C3r C3r Cs3

>  <indices>  (231) 
[0, 1, 2]

>  <tasks>  (231) 
probe_placing close_aromatic_ring close_aromatic_ring close_aromatic_ring ring_built build_to_Nac build_to_Nd0 close_aliphatic_ring close_aliphatic_ring close_aliphatic_ring close_aliphatic_ring close_aliphatic_ring

>  <prot_clashes>  (231) 
10

>  <NBS phar>  (231) 
0.12

>  <NBS_non-phar>  (231) 
0.5308732645852225

>  <NBS>  (231) 
0.6508732645852225

>  <source_stage>  (231) 
scored

>  <source_iter>  (231) 
11

>  <source_parent_mol>  (231) 
2

>  <source_scenario>  (231) 
1 2 3 1 0 7 0 6 0 0 2

>  <source_rank_in_scored_call>  (231) 
12

>  <source_current_task>  (231) 
no_task

>  <scenario>  (231) 
1 2 3 1 0 7 0 6 0 0

>  <protected_ring_attachments>  (231) 
3,1,0,2|1,0,2;4,5,0,2|5,0,2;9,8,7,2|8,7,2;11,12,7,2|12,7,2

>  <current_task>  (231) 
no_task

>  <rotatable_bond_torsions>  (231) 
1,0,2,7;0,2,7,8

$$$$

     RDKit          3D

 14 15  0  0  0  0  0  0  0  0999 V2000
  -28.2680   -6.6300  -30.5520 C   0  0  0  0  0  0  0  0  0  0  0  0
  -27.6410   -6.9170  -31.7290 N   0  0  0  0  0  0  0  0  0  0  0  0
  -28.3410   -7.6610  -29.4610 N   0  0  0  0  0  0  0  0  0  0  0  0
  -27.6880   -5.8230  -32.5120 C   0  0  0  0  0  0  0  0  0  0  0  0
  -28.3500   -4.8680  -31.8050 N   0  0  0  0  0  0  0  0  0  0  0  0
  -28.6990   -5.3580  -30.6280 N   0  0  0  0  0  0  0  0  0  0  0  0
  -29.2070   -4.7540  -29.3670 C   0  0  0  0  0  0  0  0  0  0  0  0
  -29.1710   -8.8970  -29.4920 C   0  0  2  0  0  0  0  0  0  0  0  0
  -29.3630   -9.6110  -28.1560 C   0  0  0  0  0  0  0  0  0  0  0  0
  -30.3860  -10.7120  -28.3670 C   0  0  0  0  0  0  0  0  0  0  0  0
  -29.9580  -11.6160  -29.3370 O   0  0  0  0  0  0  0  0  0  0  0  0
  -29.7400  -11.0020  -30.5770 C   0  0  0  0  0  0  0  0  0  0  0  0
  -28.6720   -9.9210  -30.5000 C   0  0  0  0  0  0  0  0  0  0  0  0
  -28.2200   -4.0100  -28.4260 C   0  0  0  0  0  0  0  0  0  0  0  0
  1  2  2  0
  1  6  1  0
  1  3  1  0
  2  4  1  0
  8  3  1  1
  4  5  2  0
  5  6  1  0
  6  7  1  0
  8 13  1  0
  8  9  1  0
  9 10  1  0
 10 11  1  0
 11 12  1  0
 12 13  1  0
  7 14  1  0
M  END
>  <name>  (232) 
Car Nac Nd0 Car Nac Nac Cs3 C3r C3r C3r O_a C3r C3r Cs3

>  <indices>  (232) 
[0, 1, 2]

>  <tasks>  (232) 
probe_placing close_aromatic_ring close_aromatic_ring close_aromatic_ring ring_built build_to_Nac build_to_Nd0 close_aliphatic_ring close_aliphatic_ring close_aliphatic_ring close_aliphatic_ring close_aliphatic_ring

>  <prot_clashes>  (232) 
10

>  <NBS phar>  (232) 
0.12

>  <NBS_non-phar>  (232) 
0.5292514051709857

>  <NBS>  (232) 
0.6492514051709857

>  <source_stage>  (232) 
scored

>  <source_iter>  (232) 
11

>  <source_parent_mol>  (232) 
2

>  <source_scenario>  (232) 
1 2 3 1 0 7 0 6 0 0 2

>  <source_rank_in_scored_call>  (232) 
13

>  <source_current_task>  (232) 
no_task

>  <scenario>  (232) 
1 2 3 1 0 7 0 6 0 0

>  <protected_ring_attachments>  (232) 
3,1,0,2|1,0,2;4,5,0,2|5,0,2;9,8,7,2|8,7,2;11,12,7,2|12,7,2

>  <current_task>  (232) 
no_task

>  <rotatable_bond_torsions>  (232) 
1,0,2,7;0,2,7,8

$$$$

     RDKit          3D

 14 15  0  0  0  0  0  0  0  0999 V2000
  -28.3160   -6.5480  -30.3620 C   0  0  0  0  0  0  0  0  0  0  0  0
  -27.5830   -6.6700  -31.5060 N   0  0  0  0  0  0  0  0  0  0  0  0
  -28.4240   -7.7030  -29.4050 N   0  0  0  0  0  0  0  0  0  0  0  0
  -27.6220   -5.4940  -32.1600 C   0  0  0  0  0  0  0  0  0  0  0  0
  -28.3840   -4.6560  -31.4080 N   0  0  0  0  0  0  0  0  0  0  0  0
  -28.8010   -5.2940  -30.3290 N   0  0  0  0  0  0  0  0  0  0  0  0
  -29.4360   -4.8630  -29.0540 C   0  0  0  0  0  0  0  0  0  0  0  0
  -29.1870   -8.9590  -29.6470 C   0  0  2  0  0  0  0  0  0  0  0  0
  -29.4500   -9.8320  -28.4220 C   0  0  0  0  0  0  0  0  0  0  0  0
  -30.3980  -10.9390  -28.8430 C   0  0  0  0  0  0  0  0  0  0  0  0
  -29.8500  -11.7050  -29.8700 O   0  0  0  0  0  0  0  0  0  0  0  0
  -29.5650  -10.9420  -31.0090 C   0  0  0  0  0  0  0  0  0  0  0  0
  -28.5610   -9.8360  -30.7190 C   0  0  0  0  0  0  0  0  0  0  0  0
  -28.7870   -3.5910  -28.3890 C   0  0  0  0  0  0  0  0  0  0  0  0
  1  2  2  0
  1  6  1  0
  1  3  1  0
  2  4  1  0
  8  3  1  1
  4  5  2  0
  5  6  1  0
  6  7  1  0
  8 13  1  0
  8  9  1  0
  9 10  1  0
 10 11  1  0
 11 12  1  0
 12 13  1  0
  7 14  1  0
M  END
>  <name>  (233) 
Car Nac Nd0 Car Nac Nac Cs3 C3r C3r C3r O_a C3r C3r Cs3

>  <indices>  (233) 
[0, 1, 2]

>  <tasks>  (233) 
probe_placing close_aromatic_ring close_aromatic_ring close_aromatic_ring ring_built build_to_Nac build_to_Nd0 close_aliphatic_ring close_aliphatic_ring close_aliphatic_ring close_aliphatic_ring close_aliphatic_ring

>  <prot_clashes>  (233) 
5

>  <NBS phar>  (233) 
0.1

>  <NBS_non-phar>  (233) 
0.4778401851654053

>  <NBS>  (233) 
0.5778401851654053

>  <source_stage>  (233) 
scored

>  <source_iter>  (233) 
11

>  <source_parent_mol>  (233) 
2

>  <source_scenario>  (233) 
1 2 3 1 0 7 0 6 0 0 2

>  <source_rank_in_scored_call>  (233) 
26

>  <source_current_task>  (233) 
no_task

>  <scenario>  (233) 
1 2 3 1 0 7 0 6 0 0

>  <protected_ring_attachments>  (233) 
3,1,0,2|1,0,2;4,5,0,2|5,0,2;9,8,7,2|8,7,2;11,12,7,2|12,7,2

>  <current_task>  (233) 
no_task

>  <rotatable_bond_torsions>  (233) 
1,0,2,7;0,2,7,8

$$$$

     RDKit          3D

 14 15  0  0  0  0  0  0  0  0999 V2000
  -28.2940   -6.6110  -30.3430 C   0  0  0  0  0  0  0  0  0  0  0  0
  -27.6400   -6.7220  -31.5350 N   0  0  0  0  0  0  0  0  0  0  0  0
  -28.3730   -7.7860  -29.4090 N   0  0  0  0  0  0  0  0  0  0  0  0
  -27.6880   -5.5300  -32.1570 C   0  0  0  0  0  0  0  0  0  0  0  0
  -28.3780   -4.6910  -31.3370 N   0  0  0  0  0  0  0  0  0  0  0  0
  -28.7420   -5.3460  -30.2490 N   0  0  0  0  0  0  0  0  0  0  0  0
  -29.2830   -4.9310  -28.9270 C   0  0  0  0  0  0  0  0  0  0  0  0
  -29.1830   -9.0160  -29.6310 C   0  0  2  0  0  0  0  0  0  0  0  0
  -29.3910   -9.9120  -28.4120 C   0  0  0  0  0  0  0  0  0  0  0  0
  -30.3930  -10.9850  -28.7980 C   0  0  0  0  0  0  0  0  0  0  0  0
  -29.9320  -11.7380  -29.8760 O   0  0  0  0  0  0  0  0  0  0  0  0
  -29.7000  -10.9530  -31.0120 C   0  0  0  0  0  0  0  0  0  0  0  0
  -28.6500   -9.8810  -30.7620 C   0  0  0  0  0  0  0  0  0  0  0  0
  -28.8240   -3.4620  -28.3950 C   0  0  0  0  0  0  0  0  0  0  0  0
  1  2  2  0
  1  6  1  0
  1  3  1  0
  2  4  1  0
  8  3  1  1
  4  5  2  0
  5  6  1  0
  6  7  1  0
  8 13  1  0
  8  9  1  0
  9 10  1  0
 10 11  1  0
 11 12  1  0
 12 13  1  0
  7 14  1  0
M  END
>  <name>  (234) 
Car Nac Nd0 Car Nac Nac Cs3 C3r C3r C3r O_a C3r C3r Cs3

>  <indices>  (234) 
[0, 1, 2]

>  <tasks>  (234) 
probe_placing close_aromatic_ring close_aromatic_ring close_aromatic_ring ring_built build_to_Nac build_to_Nd0 close_aliphatic_ring close_aliphatic_ring close_aliphatic_ring close_aliphatic_ring close_aliphatic_ring

>  <prot_clashes>  (234) 
4

>  <NBS phar>  (234) 
0.08

>  <NBS_non-phar>  (234) 
0.4517099857330322

>  <NBS>  (234) 
0.5317099857330322

>  <source_stage>  (234) 
scored

>  <source_iter>  (234) 
11

>  <source_parent_mol>  (234) 
2

>  <source_scenario>  (234) 
1 2 3 1 0 7 0 6 0 0 2

>  <source_rank_in_scored_call>  (234) 
41

>  <source_current_task>  (234) 
no_task

>  <scenario>  (234) 
1 2 3 1 0 7 0 6 0 0

>  <protected_ring_attachments>  (234) 
3,1,0,2|1,0,2;4,5,0,2|5,0,2;9,8,7,2|8,7,2;11,12,7,2|12,7,2

>  <current_task>  (234) 
no_task

>  <rotatable_bond_torsions>  (234) 
1,0,2,7;0,2,7,8

$$$$

     RDKit          3D

 14 15  0  0  0  0  0  0  0  0999 V2000
  -27.9800   -6.8460  -30.5150 C   0  0  0  0  0  0  0  0  0  0  0  0
  -27.8730   -7.0930  -31.8530 N   0  0  0  0  0  0  0  0  0  0  0  0
  -27.7880   -7.9560  -29.5210 N   0  0  0  0  0  0  0  0  0  0  0  0
  -28.0540   -5.9350  -32.5140 C   0  0  0  0  0  0  0  0  0  0  0  0
  -28.2740   -4.9800  -31.5710 N   0  0  0  0  0  0  0  0  0  0  0  0
  -28.2310   -5.5320  -30.3710 N   0  0  0  0  0  0  0  0  0  0  0  0
  -28.1530   -4.9910  -28.9870 C   0  0  0  0  0  0  0  0  0  0  0  0
  -28.7320   -9.0850  -29.2910 C   0  0  2  0  0  0  0  0  0  0  0  0
  -28.5160   -9.8900  -28.0110 C   0  0  0  0  0  0  0  0  0  0  0  0
  -29.6850  -10.8470  -27.8690 C   0  0  0  0  0  0  0  0  0  0  0  0
  -29.7700  -11.7020  -28.9660 O   0  0  0  0  0  0  0  0  0  0  0  0
  -29.9410  -11.0070  -30.1700 C   0  0  0  0  0  0  0  0  0  0  0  0
  -28.7820  -10.0630  -30.4540 C   0  0  0  0  0  0  0  0  0  0  0  0
  -29.5590   -4.3990  -28.6750 C   0  0  0  0  0  0  0  0  0  0  0  0
  1  2  2  0
  1  6  1  0
  1  3  1  0
  2  4  1  0
  8  3  1  6
  4  5  2  0
  5  6  1  0
  6  7  1  0
  8 13  1  0
  8  9  1  0
  9 10  1  0
 10 11  1  0
 11 12  1  0
 12 13  1  0
  7 14  1  0
M  END
>  <name>  (235) 
Car Nac Nd0 Car Nac Nac Cs3 C3r C3r C3r O_a C3r C3r Cs3

>  <indices>  (235) 
[0, 1, 2]

>  <tasks>  (235) 
probe_placing close_aromatic_ring close_aromatic_ring close_aromatic_ring ring_built build_to_Nac build_to_Nd0 close_aliphatic_ring close_aliphatic_ring close_aliphatic_ring close_aliphatic_ring close_aliphatic_ring

>  <prot_clashes>  (235) 
6

>  <NBS phar>  (235) 
0.02

>  <NBS_non-phar>  (235) 
0.47797506196158274

>  <NBS>  (235) 
0.49797506196158275

>  <source_stage>  (235) 
scored

>  <source_iter>  (235) 
11

>  <source_parent_mol>  (235) 
2

>  <source_scenario>  (235) 
1 2 3 1 0 7 0 6 0 0 2

>  <source_rank_in_scored_call>  (235) 
63

>  <source_current_task>  (235) 
no_task

>  <scenario>  (235) 
1 2 3 1 0 7 0 6 0 0

>  <protected_ring_attachments>  (235) 
3,1,0,2|1,0,2;4,5,0,2|5,0,2;9,8,7,2|8,7,2;11,12,7,2|12,7,2

>  <current_task>  (235) 
no_task

>  <rotatable_bond_torsions>  (235) 
1,0,2,7;0,2,7,8

$$$$

     RDKit          3D

 14 15  0  0  0  0  0  0  0  0999 V2000
  -27.9720   -6.7190  -30.4330 C   0  0  0  0  0  0  0  0  0  0  0  0
  -27.8700   -7.0260  -31.7580 N   0  0  0  0  0  0  0  0  0  0  0  0
  -27.7790   -7.7840  -29.3910 N   0  0  0  0  0  0  0  0  0  0  0  0
  -28.0510   -5.8980  -32.4700 C   0  0  0  0  0  0  0  0  0  0  0  0
  -28.2650   -4.9010  -31.5690 N   0  0  0  0  0  0  0  0  0  0  0  0
  -28.2190   -5.3990  -30.3460 N   0  0  0  0  0  0  0  0  0  0  0  0
  -28.1360   -4.7980  -28.9880 C   0  0  0  0  0  0  0  0  0  0  0  0
  -28.7250   -8.9000  -29.1080 C   0  0  2  0  0  0  0  0  0  0  0  0
  -28.5060   -9.6480  -27.7940 C   0  0  0  0  0  0  0  0  0  0  0  0
  -29.6770  -10.5950  -27.6060 C   0  0  0  0  0  0  0  0  0  0  0  0
  -29.7680  -11.4970  -28.6640 O   0  0  0  0  0  0  0  0  0  0  0  0
  -29.9410  -10.8560  -29.8970 C   0  0  0  0  0  0  0  0  0  0  0  0
  -28.7810   -9.9280  -30.2260 C   0  0  0  0  0  0  0  0  0  0  0  0
  -29.5630   -4.5740  -28.4680 C   0  0  0  0  0  0  0  0  0  0  0  0
  1  2  2  0
  1  6  1  0
  1  3  1  0
  2  4  1  0
  8  3  1  6
  4  5  2  0
  5  6  1  0
  6  7  1  0
  8 13  1  0
  8  9  1  0
  9 10  1  0
 10 11  1  0
 11 12  1  0
 12 13  1  0
  7 14  1  0
M  END
>  <name>  (236) 
Car Nac Nd0 Car Nac Nac Cs3 C3r C3r C3r O_a C3r C3r Cs3

>  <indices>  (236) 
[0, 1, 2]

>  <tasks>  (236) 
probe_placing close_aromatic_ring close_aromatic_ring close_aromatic_ring ring_built build_to_Nac build_to_Nd0 close_aliphatic_ring close_aliphatic_ring close_aliphatic_ring close_aliphatic_ring close_aliphatic_ring

>  <prot_clashes>  (236) 
8

>  <NBS phar>  (236) 
0.02

>  <NBS_non-phar>  (236) 
0.4777325562068394

>  <NBS>  (236) 
0.4977325562068394

>  <source_stage>  (236) 
scored

>  <source_iter>  (236) 
11

>  <source_parent_mol>  (236) 
2

>  <source_scenario>  (236) 
1 2 3 1 0 7 0 6 0 0 2

>  <source_rank_in_scored_call>  (236) 
64

>  <source_current_task>  (236) 
no_task

>  <scenario>  (236) 
1 2 3 1 0 7 0 6 0 0

>  <protected_ring_attachments>  (236) 
3,1,0,2|1,0,2;4,5,0,2|5,0,2;9,8,7,2|8,7,2;11,12,7,2|12,7,2

>  <current_task>  (236) 
no_task

>  <rotatable_bond_torsions>  (236) 
1,0,2,7;0,2,7,8

$$$$

     RDKit          3D

 14 15  0  0  0  0  0  0  0  0999 V2000
  -28.2130   -6.6050  -30.4120 C   0  0  0  0  0  0  0  0  0  0  0  0
  -27.5860   -6.6090  -31.6240 N   0  0  0  0  0  0  0  0  0  0  0  0
  -28.2550   -7.8530  -29.5760 N   0  0  0  0  0  0  0  0  0  0  0  0
  -27.6630   -5.3710  -32.1450 C   0  0  0  0  0  0  0  0  0  0  0  0
  -28.3430   -4.6120  -31.2440 N   0  0  0  0  0  0  0  0  0  0  0  0
  -28.6730   -5.3590  -30.2050 N   0  0  0  0  0  0  0  0  0  0  0  0
  -29.1870   -5.0610  -28.8410 C   0  0  0  0  0  0  0  0  0  0  0  0
  -29.0560   -9.0720  -29.8790 C   0  0  2  0  0  0  0  0  0  0  0  0
  -29.2230  -10.0680  -28.7340 C   0  0  0  0  0  0  0  0  0  0  0  0
  -30.2220  -11.1190  -29.1820 C   0  0  0  0  0  0  0  0  0  0  0  0
  -29.7790  -11.7750  -30.3290 O   0  0  0  0  0  0  0  0  0  0  0  0
  -29.5830  -10.8970  -31.4020 C   0  0  0  0  0  0  0  0  0  0  0  0
  -28.5400   -9.8350  -31.0890 C   0  0  0  0  0  0  0  0  0  0  0  0
  -29.1800   -3.5670  -28.5060 C   0  0  0  0  0  0  0  0  0  0  0  0
  1  2  2  0
  1  6  1  0
  1  3  1  0
  2  4  1  0
  8  3  1  1
  4  5  2  0
  5  6  1  0
  6  7  1  0
  8 13  1  0
  8  9  1  0
  9 10  1  0
 10 11  1  0
 11 12  1  0
 12 13  1  0
  7 14  1  0
M  END
>  <name>  (237) 
Car Nac Nd0 Car Nac Nac Cs3 C3r C3r C3r O_a C3r C3r Cs3

>  <indices>  (237) 
[0, 1, 2]

>  <tasks>  (237) 
probe_placing close_aromatic_ring close_aromatic_ring close_aromatic_ring ring_built build_to_Nac build_to_Nd0 close_aliphatic_ring close_aliphatic_ring close_aliphatic_ring close_aliphatic_ring close_aliphatic_ring

>  <prot_clashes>  (237) 
6

>  <NBS phar>  (237) 
0.08

>  <NBS_non-phar>  (237) 
0.4136266027178083

>  <NBS>  (237) 
0.49362660271780834

>  <source_stage>  (237) 
scored

>  <source_iter>  (237) 
11

>  <source_parent_mol>  (237) 
2

>  <source_scenario>  (237) 
1 2 3 1 0 7 0 6 0 0 2

>  <source_rank_in_scored_call>  (237) 
69

>  <source_current_task>  (237) 
no_task

>  <scenario>  (237) 
1 2 3 1 0 7 0 6 0 0

>  <protected_ring_attachments>  (237) 
3,1,0,2|1,0,2;4,5,0,2|5,0,2;9,8,7,2|8,7,2;11,12,7,2|12,7,2

>  <current_task>  (237) 
no_task

>  <rotatable_bond_torsions>  (237) 
1,0,2,7;0,2,7,8

$$$$

     RDKit          3D

 14 15  0  0  0  0  0  0  0  0999 V2000
  -27.9820   -6.7330  -30.4220 C   0  0  0  0  0  0  0  0  0  0  0  0
  -27.8730   -7.0400  -31.7460 N   0  0  0  0  0  0  0  0  0  0  0  0
  -27.7880   -7.7980  -29.3780 N   0  0  0  0  0  0  0  0  0  0  0  0
  -28.0560   -5.9130  -32.4590 C   0  0  0  0  0  0  0  0  0  0  0  0
  -28.2790   -4.9170  -31.5590 N   0  0  0  0  0  0  0  0  0  0  0  0
  -28.2370   -5.4150  -30.3360 N   0  0  0  0  0  0  0  0  0  0  0  0
  -28.1620   -4.8130  -28.9780 C   0  0  0  0  0  0  0  0  0  0  0  0
  -28.7290   -8.9180  -29.0990 C   0  0  2  0  0  0  0  0  0  0  0  0
  -28.5130   -9.6650  -27.7850 C   0  0  0  0  0  0  0  0  0  0  0  0
  -29.6800  -10.6180  -27.6020 C   0  0  0  0  0  0  0  0  0  0  0  0
  -29.7610  -11.5210  -28.6600 O   0  0  0  0  0  0  0  0  0  0  0  0
  -29.9330  -10.8810  -29.8930 C   0  0  0  0  0  0  0  0  0  0  0  0
  -28.7760   -9.9470  -30.2180 C   0  0  0  0  0  0  0  0  0  0  0  0
  -29.5660   -4.5440  -28.5030 C   0  0  0  0  0  0  0  0  0  0  0  0
  1  2  2  0
  1  6  1  0
  1  3  1  0
  2  4  1  0
  8  3  1  6
  4  5  2  0
  5  6  1  0
  6  7  1  0
  8 13  1  0
  8  9  1  0
  9 10  1  0
 10 11  1  0
 11 12  1  0
 12 13  1  0
  7 14  1  0
M  END
>  <name>  (238) 
Car Nac Nd0 Car Nac Nac Cs3 C3r C3r C3r O_a C3r C3r Cs3

>  <indices>  (238) 
[0, 1, 2]

>  <tasks>  (238) 
probe_placing close_aromatic_ring close_aromatic_ring close_aromatic_ring ring_built build_to_Nac build_to_Nd0 close_aliphatic_ring close_aliphatic_ring close_aliphatic_ring close_aliphatic_ring close_aliphatic_ring

>  <prot_clashes>  (238) 
8

>  <NBS phar>  (238) 
0.02

>  <NBS_non-phar>  (238) 
0.46625174794878277

>  <NBS>  (238) 
0.4862517479487828

>  <source_stage>  (238) 
scored

>  <source_iter>  (238) 
11

>  <source_parent_mol>  (238) 
2

>  <source_scenario>  (238) 
1 2 3 1 0 7 0 6 0 0 2

>  <source_rank_in_scored_call>  (238) 
78

>  <source_current_task>  (238) 
no_task

>  <scenario>  (238) 
1 2 3 1 0 7 0 6 0 0

>  <protected_ring_attachments>  (238) 
3,1,0,2|1,0,2;4,5,0,2|5,0,2;9,8,7,2|8,7,2;11,12,7,2|12,7,2

>  <current_task>  (238) 
no_task

>  <rotatable_bond_torsions>  (238) 
1,0,2,7;0,2,7,8

$$$$

     RDKit          3D

 14 15  0  0  0  0  0  0  0  0999 V2000
  -28.2160   -6.6250  -30.4030 C   0  0  0  0  0  0  0  0  0  0  0  0
  -27.5960   -6.6260  -31.6180 N   0  0  0  0  0  0  0  0  0  0  0  0
  -28.2460   -7.8740  -29.5670 N   0  0  0  0  0  0  0  0  0  0  0  0
  -27.6840   -5.3880  -32.1390 C   0  0  0  0  0  0  0  0  0  0  0  0
  -28.3630   -4.6330  -31.2340 N   0  0  0  0  0  0  0  0  0  0  0  0
  -28.6830   -5.3810  -30.1930 N   0  0  0  0  0  0  0  0  0  0  0  0
  -29.1910   -5.0870  -28.8260 C   0  0  0  0  0  0  0  0  0  0  0  0
  -29.0420   -9.0970  -29.8660 C   0  0  2  0  0  0  0  0  0  0  0  0
  -29.1970  -10.0940  -28.7190 C   0  0  0  0  0  0  0  0  0  0  0  0
  -30.1920  -11.1510  -29.1620 C   0  0  0  0  0  0  0  0  0  0  0  0
  -29.7510  -11.8050  -30.3110 O   0  0  0  0  0  0  0  0  0  0  0  0
  -29.5670  -10.9260  -31.3860 C   0  0  0  0  0  0  0  0  0  0  0  0
  -28.5280   -9.8570  -31.0780 C   0  0  0  0  0  0  0  0  0  0  0  0
  -28.9570   -3.5340  -28.5660 C   0  0  0  0  0  0  0  0  0  0  0  0
  1  2  2  0
  1  6  1  0
  1  3  1  0
  2  4  1  0
  8  3  1  1
  4  5  2  0
  5  6  1  0
  6  7  1  0
  8 13  1  0
  8  9  1  0
  9 10  1  0
 10 11  1  0
 11 12  1  0
 12 13  1  0
  7 14  1  0
M  END
>  <name>  (239) 
Car Nac Nd0 Car Nac Nac Cs3 C3r C3r C3r O_a C3r C3r Cs3

>  <indices>  (239) 
[0, 1, 2]

>  <tasks>  (239) 
probe_placing close_aromatic_ring close_aromatic_ring close_aromatic_ring ring_built build_to_Nac build_to_Nd0 close_aliphatic_ring close_aliphatic_ring close_aliphatic_ring close_aliphatic_ring close_aliphatic_ring

>  <prot_clashes>  (239) 
5

>  <NBS phar>  (239) 
0.06000000000000001

>  <NBS_non-phar>  (239) 
0.4116334915161133

>  <NBS>  (239) 
0.4716334915161133

>  <source_stage>  (239) 
scored

>  <source_iter>  (239) 
11

>  <source_parent_mol>  (239) 
2

>  <source_scenario>  (239) 
1 2 3 1 0 7 0 6 0 0 2

>  <source_rank_in_scored_call>  (239) 
98

>  <source_current_task>  (239) 
no_task

>  <scenario>  (239) 
1 2 3 1 0 7 0 6 0 0

>  <protected_ring_attachments>  (239) 
3,1,0,2|1,0,2;4,5,0,2|5,0,2;9,8,7,2|8,7,2;11,12,7,2|12,7,2

>  <current_task>  (239) 
no_task

>  <rotatable_bond_torsions>  (239) 
1,0,2,7;0,2,7,8

$$$$

     RDKit          3D

 14 15  0  0  0  0  0  0  0  0999 V2000
  -28.0080   -6.7760  -30.4070 C   0  0  0  0  0  0  0  0  0  0  0  0
  -27.7340   -6.9910  -31.7260 N   0  0  0  0  0  0  0  0  0  0  0  0
  -27.9210   -7.9080  -29.4210 N   0  0  0  0  0  0  0  0  0  0  0  0
  -27.8520   -5.8200  -32.3790 C   0  0  0  0  0  0  0  0  0  0  0  0
  -28.2000   -4.8900  -31.4490 N   0  0  0  0  0  0  0  0  0  0  0  0
  -28.2960   -5.4700  -30.2650 N   0  0  0  0  0  0  0  0  0  0  0  0
  -28.3970   -4.9610  -28.8710 C   0  0  0  0  0  0  0  0  0  0  0  0
  -28.8680   -9.0540  -29.3330 C   0  0  2  0  0  0  0  0  0  0  0  0
  -28.7980   -9.8870  -28.0550 C   0  0  0  0  0  0  0  0  0  0  0  0
  -29.9610  -10.8620  -28.0790 C   0  0  0  0  0  0  0  0  0  0  0  0
  -29.8970  -11.6910  -29.1970 O   0  0  0  0  0  0  0  0  0  0  0  0
  -29.9300  -10.9700  -30.3960 C   0  0  0  0  0  0  0  0  0  0  0  0
  -28.7610  -10.0040  -30.5150 C   0  0  0  0  0  0  0  0  0  0  0  0
  -29.1890   -3.6750  -28.7900 C   0  0  0  0  0  0  0  0  0  0  0  0
  1  2  2  0
  1  6  1  0
  1  3  1  0
  2  4  1  0
  8  3  1  1
  4  5  2  0
  5  6  1  0
  6  7  1  0
  8 13  1  0
  8  9  1  0
  9 10  1  0
 10 11  1  0
 11 12  1  0
 12 13  1  0
  7 14  1  0
M  END
>  <name>  (240) 
Car Nac Nd0 Car Nac Nac Cs3 C3r C3r C3r O_a C3r C3r Cs3

>  <indices>  (240) 
[0, 1, 2]

>  <tasks>  (240) 
probe_placing close_aromatic_ring close_aromatic_ring close_aromatic_ring ring_built build_to_Nac build_to_Nd0 close_aliphatic_ring close_aliphatic_ring close_aliphatic_ring close_aliphatic_ring close_aliphatic_ring

>  <prot_clashes>  (240) 
7

>  <NBS phar>  (240) 
0.04

>  <NBS_non-phar>  (240) 
0.42453507014683317

>  <NBS>  (240) 
0.46453507014683315

>  <source_stage>  (240) 
scored

>  <source_iter>  (240) 
11

>  <source_parent_mol>  (240) 
2

>  <source_scenario>  (240) 
1 2 3 1 0 7 0 6 0 0 2

>  <source_rank_in_scored_call>  (240) 
104

>  <source_current_task>  (240) 
no_task

>  <scenario>  (240) 
1 2 3 1 0 7 0 6 0 0

>  <protected_ring_attachments>  (240) 
3,1,0,2|1,0,2;4,5,0,2|5,0,2;9,8,7,2|8,7,2;11,12,7,2|12,7,2

>  <current_task>  (240) 
no_task

>  <rotatable_bond_torsions>  (240) 
1,0,2,7;0,2,7,8

$$$$

     RDKit          3D

 14 15  0  0  0  0  0  0  0  0999 V2000
  -27.9840   -6.6460  -30.4020 C   0  0  0  0  0  0  0  0  0  0  0  0
  -27.8730   -7.0300  -31.7060 N   0  0  0  0  0  0  0  0  0  0  0  0
  -27.7810   -7.6450  -29.2980 N   0  0  0  0  0  0  0  0  0  0  0  0
  -28.0660   -5.9490  -32.4840 C   0  0  0  0  0  0  0  0  0  0  0  0
  -28.2970   -4.9030  -31.6450 N   0  0  0  0  0  0  0  0  0  0  0  0
  -28.2500   -5.3270  -30.3950 N   0  0  0  0  0  0  0  0  0  0  0  0
  -28.1800   -4.6450  -29.0750 C   0  0  0  0  0  0  0  0  0  0  0  0
  -28.7120   -8.7540  -28.9510 C   0  0  2  0  0  0  0  0  0  0  0  0
  -28.4900   -9.4200  -27.5950 C   0  0  0  0  0  0  0  0  0  0  0  0
  -29.6480  -10.3690  -27.3550 C   0  0  0  0  0  0  0  0  0  0  0  0
  -29.7220  -11.3350  -28.3570 O   0  0  0  0  0  0  0  0  0  0  0  0
  -29.8990  -10.7700  -29.6260 C   0  0  0  0  0  0  0  0  0  0  0  0
  -28.7510   -9.8480  -30.0070 C   0  0  0  0  0  0  0  0  0  0  0  0
  -29.5630   -4.7310  -28.4780 C   0  0  0  0  0  0  0  0  0  0  0  0
  1  2  2  0
  1  6  1  0
  1  3  1  0
  2  4  1  0
  8  3  1  6
  4  5  2  0
  5  6  1  0
  6  7  1  0
  8 13  1  0
  8  9  1  0
  9 10  1  0
 10 11  1  0
 11 12  1  0
 12 13  1  0
  7 14  1  0
M  END
>  <name>  (241) 
Car Nac Nd0 Car Nac Nac Cs3 C3r C3r C3r O_a C3r C3r Cs3

>  <indices>  (241) 
[0, 1, 2]

>  <tasks>  (241) 
probe_placing close_aromatic_ring close_aromatic_ring close_aromatic_ring ring_built build_to_Nac build_to_Nd0 close_aliphatic_ring close_aliphatic_ring close_aliphatic_ring close_aliphatic_ring close_aliphatic_ring

>  <prot_clashes>  (241) 
8

>  <NBS phar>  (241) 
0.02

>  <NBS_non-phar>  (241) 
0.43833184242248535

>  <NBS>  (241) 
0.45833184242248537

>  <source_stage>  (241) 
scored

>  <source_iter>  (241) 
11

>  <source_parent_mol>  (241) 
2

>  <source_scenario>  (241) 
1 2 3 1 0 7 0 6 0 0 2

>  <source_rank_in_scored_call>  (241) 
107

>  <source_current_task>  (241) 
no_task

>  <scenario>  (241) 
1 2 3 1 0 7 0 6 0 0

>  <protected_ring_attachments>  (241) 
3,1,0,2|1,0,2;4,5,0,2|5,0,2;9,8,7,2|8,7,2;11,12,7,2|12,7,2

>  <current_task>  (241) 
no_task

>  <rotatable_bond_torsions>  (241) 
1,0,2,7;0,2,7,8

$$$$

     RDKit          3D

 13 14  0  0  0  0  0  0  0  0999 V2000
  -27.9600   -7.3450  -31.2910 C   0  0  0  0  0  0  0  0  0  0  0  0
  -27.6910   -6.8030  -32.5130 N   0  0  0  0  0  0  0  0  0  0  0  0
  -27.6940   -8.8010  -31.0310 N   0  0  0  0  0  0  0  0  0  0  0  0
  -27.9850   -5.4900  -32.4690 C   0  0  0  0  0  0  0  0  0  0  0  0
  -28.4380   -5.2360  -31.2130 N   0  0  0  0  0  0  0  0  0  0  0  0
  -28.4220   -6.3540  -30.5090 N   0  0  0  0  0  0  0  0  0  0  0  0
  -28.5620   -6.6650  -29.0600 C   0  0  0  0  0  0  0  0  0  0  0  0
  -28.0030  -10.1260  -30.9310 C   0  0  2  0  0  0  0  0  0  0  0  0
  -28.3440  -11.0790  -32.0510 C   0  0  0  0  0  0  0  0  0  0  0  0
  -28.8240  -12.3630  -31.4180 C   0  0  0  0  0  0  0  0  0  0  0  0
  -29.9370  -12.1380  -30.6330 O   0  0  0  0  0  0  0  0  0  0  0  0
  -29.6940  -11.2520  -29.6050 C   0  0  0  0  0  0  0  0  0  0  0  0
  -29.2570   -9.9220  -30.1410 C   0  0  0  0  0  0  0  0  0  0  0  0
  1  2  2  0
  1  3  1  0
  1  6  1  0
  2  4  1  0
  8  3  1  6
  4  5  2  0
  5  6  1  0
  6  7  1  0
  8  9  1  0
  8 13  1  0
  9 10  1  0
 10 11  1  0
 11 12  1  0
 12 13  1  0
M  END
>  <name>  (242) 
Car Nac Nd0 Car Nac Nac Cs3 C3r C3r C3r O_a C3r C3r

>  <indices>  (242) 
[0, 1, 2]

>  <tasks>  (242) 
probe_placing close_aromatic_ring close_aromatic_ring close_aromatic_ring ring_built build_to_Nac build_to_Nd0 close_aliphatic_ring close_aliphatic_ring close_aliphatic_ring close_aliphatic_ring

>  <prot_clashes>  (242) 
5

>  <NBS phar>  (242) 
0.22000000000000003

>  <NBS_non-phar>  (242) 
0.6150649144099309

>  <NBS>  (242) 
0.8350649144099309

>  <source_stage>  (242) 
scored

>  <source_iter>  (242) 
10

>  <source_parent_mol>  (242) 
0

>  <source_scenario>  (242) 
1 2 3 1 0 7 0 6 1 0

>  <source_rank_in_scored_call>  (242) 
2

>  <source_current_task>  (242) 
close_aliphatic_ring

>  <scenario>  (242) 
1 2 3 1 0 7 0 6 1

>  <protected_ring_attachments>  (242) 
3,1,0,2|1,0,2;4,5,0,2|5,0,2

>  <current_task>  (242) 
no_task

>  <rotatable_bond_torsions>  (242) 
1,0,2,7;0,2,7,8;2,7,8,9;7,8,9,10;8,9,10,11

$$$$

     RDKit          3D

 13 14  0  0  0  0  0  0  0  0999 V2000
  -27.9220   -7.2730  -31.2410 C   0  0  0  0  0  0  0  0  0  0  0  0
  -27.7800   -6.7980  -32.5130 N   0  0  0  0  0  0  0  0  0  0  0  0
  -27.6420   -8.7190  -30.9350 N   0  0  0  0  0  0  0  0  0  0  0  0
  -28.0550   -5.4810  -32.5050 C   0  0  0  0  0  0  0  0  0  0  0  0
  -28.3650   -5.1560  -31.2220 N   0  0  0  0  0  0  0  0  0  0  0  0
  -28.2860   -6.2360  -30.4660 N   0  0  0  0  0  0  0  0  0  0  0  0
  -28.2700   -6.4720  -28.9970 C   0  0  0  0  0  0  0  0  0  0  0  0
  -28.0640  -10.0180  -30.8090 C   0  0  2  0  0  0  0  0  0  0  0  0
  -28.7680  -10.9510  -31.7630 C   0  0  0  0  0  0  0  0  0  0  0  0
  -28.7220  -12.3180  -31.1180 C   0  0  0  0  0  0  0  0  0  0  0  0
  -29.4340  -12.2410  -29.7990 C   0  0  0  0  0  0  0  0  0  0  0  0
  -28.8280  -11.3270  -28.9770 O   0  0  0  0  0  0  0  0  0  0  0  0
  -28.8110  -10.0580  -29.5010 C   0  0  0  0  0  0  0  0  0  0  0  0
  1  2  2  0
  1  3  1  0
  1  6  1  0
  2  4  1  0
  8  3  1  6
  4  5  2  0
  5  6  1  0
  6  7  1  0
  8  9  1  0
  8 13  1  0
  9 10  1  0
 10 11  1  0
 11 12  1  0
 12 13  1  0
M  END
>  <name>  (243) 
Car Nac Nd0 Car Nac Nac Cs3 C3r C3r C3r C3r O_a C3r

>  <indices>  (243) 
[0, 1, 2]

>  <tasks>  (243) 
probe_placing close_aromatic_ring close_aromatic_ring close_aromatic_ring ring_built build_to_Nac build_to_Nd0 close_aliphatic_ring close_aliphatic_ring close_aliphatic_ring close_aliphatic_ring

>  <prot_clashes>  (243) 
2

>  <NBS phar>  (243) 
0.1

>  <NBS_non-phar>  (243) 
0.6493977766770583

>  <NBS>  (243) 
0.7493977766770583

>  <source_stage>  (243) 
scored

>  <source_iter>  (243) 
10

>  <source_parent_mol>  (243) 
7

>  <source_scenario>  (243) 
1 2 3 1 0 7 0 6 4 7

>  <source_rank_in_scored_call>  (243) 
0

>  <source_current_task>  (243) 
close_aliphatic_ring

>  <scenario>  (243) 
1 2 3 1 0 7 0 6 4

>  <protected_ring_attachments>  (243) 
3,1,0,2|1,0,2;4,5,0,2|5,0,2

>  <current_task>  (243) 
no_task

>  <rotatable_bond_torsions>  (243) 
1,0,2,7;0,2,7,8;2,7,8,9;7,8,9,10;8,9,10,11

$$$$

     RDKit          3D

 13 14  0  0  0  0  0  0  0  0999 V2000
  -27.8610   -7.6710  -31.3030 C   0  0  0  0  0  0  0  0  0  0  0  0
  -28.0630   -7.0730  -32.5130 N   0  0  0  0  0  0  0  0  0  0  0  0
  -27.4390   -9.1120  -31.2300 N   0  0  0  0  0  0  0  0  0  0  0  0
  -28.3980   -5.7870  -32.2990 C   0  0  0  0  0  0  0  0  0  0  0  0
  -28.3990   -5.6050  -30.9500 N   0  0  0  0  0  0  0  0  0  0  0  0
  -28.0790   -6.7410  -30.3560 N   0  0  0  0  0  0  0  0  0  0  0  0
  -27.6890   -7.1060  -28.9670 C   0  0  0  0  0  0  0  0  0  0  0  0
  -28.3940  -10.1600  -31.4160 C   0  0  1  0  0  0  0  0  0  0  0  0
  -27.6890  -11.4980  -31.3310 C   0  0  0  0  0  0  0  0  0  0  0  0
  -28.7280  -12.5460  -31.6260 C   0  0  0  0  0  0  0  0  0  0  0  0
  -29.8220  -12.4200  -30.5870 C   0  0  0  0  0  0  0  0  0  0  0  0
  -30.4140  -11.1640  -30.6240 O   0  0  0  0  0  0  0  0  0  0  0  0
  -29.5100  -10.1500  -30.3810 C   0  0  0  0  0  0  0  0  0  0  0  0
  1  2  2  0
  1  3  1  0
  1  6  1  0
  2  4  1  0
  8  3  1  1
  4  5  2  0
  5  6  1  0
  6  7  1  0
  8  9  1  0
  8 13  1  0
  9 10  1  0
 10 11  1  0
 11 12  1  0
 12 13  1  0
M  END
>  <name>  (244) 
Car Nac Nd0 Car Nac Nac Cs3 C3r C3r C3r C3r O_a C3r

>  <indices>  (244) 
[0, 1, 2]

>  <tasks>  (244) 
probe_placing close_aromatic_ring close_aromatic_ring close_aromatic_ring ring_built build_to_Nac build_to_Nd0 close_aliphatic_ring close_aliphatic_ring close_aliphatic_ring close_aliphatic_ring

>  <prot_clashes>  (244) 
7

>  <NBS phar>  (244) 
0.34

>  <NBS_non-phar>  (244) 
0.6666522392859826

>  <NBS>  (244) 
1.0066522392859827

>  <source_stage>  (244) 
scored

>  <source_iter>  (244) 
10

>  <source_parent_mol>  (244) 
0

>  <source_scenario>  (244) 
1 2 3 1 0 7 0 6 5 0

>  <source_rank_in_scored_call>  (244) 
0

>  <source_current_task>  (244) 
close_aliphatic_ring

>  <scenario>  (244) 
1 2 3 1 0 7 0 6 5

>  <protected_ring_attachments>  (244) 
3,1,0,2|1,0,2;4,5,0,2|5,0,2

>  <current_task>  (244) 
no_task

>  <rotatable_bond_torsions>  (244) 
1,0,2,7;0,2,7,8;2,7,8,9;7,8,9,10;8,9,10,11

$$$$

     RDKit          3D

 13 14  0  0  0  0  0  0  0  0999 V2000
  -27.8430   -7.6890  -31.2740 C   0  0  0  0  0  0  0  0  0  0  0  0
  -28.0660   -7.1370  -32.5030 N   0  0  0  0  0  0  0  0  0  0  0  0
  -27.3880   -9.1160  -31.1540 N   0  0  0  0  0  0  0  0  0  0  0  0
  -28.4280   -5.8530  -32.3320 C   0  0  0  0  0  0  0  0  0  0  0  0
  -28.4260   -5.6250  -30.9900 N   0  0  0  0  0  0  0  0  0  0  0  0
  -28.0770   -6.7310  -30.3590 N   0  0  0  0  0  0  0  0  0  0  0  0
  -27.6720   -7.0390  -28.9610 C   0  0  0  0  0  0  0  0  0  0  0  0
  -28.4850  -10.0930  -31.4740 C   0  0  1  0  0  0  0  0  0  0  0  0
  -27.6870  -11.3100  -31.1030 C   0  0  0  0  0  0  0  0  0  0  0  0
  -28.6000  -12.4940  -31.2620 C   0  0  0  0  0  0  0  0  0  0  0  0
  -29.7740  -12.3000  -30.3350 C   0  0  0  0  0  0  0  0  0  0  0  0
  -30.4710  -11.1480  -30.6350 O   0  0  0  0  0  0  0  0  0  0  0  0
  -29.6730  -10.0120  -30.5240 C   0  0  0  0  0  0  0  0  0  0  0  0
  1  2  2  0
  1  3  1  0
  1  6  1  0
  2  4  1  0
  8  3  1  1
  4  5  2  0
  5  6  1  0
  6  7  1  0
  8  9  1  0
  8 13  1  0
  9 10  1  0
 10 11  1  0
 11 12  1  0
 12 13  1  0
M  END
>  <name>  (245) 
Car Nac Nd0 Car Nac Nac Cs3 C3r C3r C3r C3r O_a C3r

>  <indices>  (245) 
[0, 1, 2]

>  <tasks>  (245) 
probe_placing close_aromatic_ring close_aromatic_ring close_aromatic_ring ring_built build_to_Nac build_to_Nd0 close_aliphatic_ring close_aliphatic_ring close_aliphatic_ring close_aliphatic_ring

>  <prot_clashes>  (245) 
8

>  <NBS phar>  (245) 
0.2800000000000001

>  <NBS_non-phar>  (245) 
0.6454728199885442

>  <NBS>  (245) 
0.9254728199885442

>  <source_stage>  (245) 
scored

>  <source_iter>  (245) 
10

>  <source_parent_mol>  (245) 
0

>  <source_scenario>  (245) 
1 2 3 1 0 7 0 6 5 0

>  <source_rank_in_scored_call>  (245) 
1

>  <source_current_task>  (245) 
close_aliphatic_ring

>  <scenario>  (245) 
1 2 3 1 0 7 0 6 5

>  <protected_ring_attachments>  (245) 
3,1,0,2|1,0,2;4,5,0,2|5,0,2

>  <current_task>  (245) 
no_task

>  <rotatable_bond_torsions>  (245) 
1,0,2,7;0,2,7,8;2,7,8,9;7,8,9,10;8,9,10,11

$$$$

     RDKit          3D

 13 14  0  0  0  0  0  0  0  0999 V2000
  -27.8460   -7.2950  -31.2480 C   0  0  0  0  0  0  0  0  0  0  0  0
  -27.7820   -6.7870  -32.5130 N   0  0  0  0  0  0  0  0  0  0  0  0
  -27.5420   -8.7460  -30.9970 N   0  0  0  0  0  0  0  0  0  0  0  0
  -28.0620   -5.4730  -32.4570 C   0  0  0  0  0  0  0  0  0  0  0  0
  -28.2980   -5.1810  -31.1490 N   0  0  0  0  0  0  0  0  0  0  0  0
  -28.1680   -6.2800  -30.4270 N   0  0  0  0  0  0  0  0  0  0  0  0
  -28.0640   -6.5510  -28.9670 C   0  0  0  0  0  0  0  0  0  0  0  0
  -28.6610   -9.7300  -30.8720 C   0  0  1  0  0  0  0  0  0  0  0  0
  -28.0630  -11.0170  -31.3880 C   0  0  0  0  0  0  0  0  0  0  0  0
  -29.1080  -12.0740  -31.4060 C   0  0  0  0  0  0  0  0  0  0  0  0
  -29.6310  -12.2920  -30.0070 C   0  0  0  0  0  0  0  0  0  0  0  0
  -30.2420  -11.0030  -29.4770 C   0  0  0  0  0  0  0  0  0  0  0  0
  -29.1880   -9.9290  -29.4590 C   0  0  0  0  0  0  0  0  0  0  0  0
  1  2  2  0
  1  3  1  0
  1  6  1  0
  2  4  1  0
  8  3  1  1
  4  5  2  0
  5  6  1  0
  6  7  1  0
  8  9  1  0
  8 13  1  0
  9 10  1  0
 10 11  1  0
 11 12  1  0
 12 13  1  0
M  END
>  <name>  (246) 
Car Nac Nd0 Car Nac Nac Cs3 C3r C3r C3r C3r C3r C3r

>  <indices>  (246) 
[0, 1, 2]

>  <tasks>  (246) 
probe_placing close_aromatic_ring close_aromatic_ring close_aromatic_ring ring_built build_to_Nac build_to_Nd0 close_aliphatic_ring close_aliphatic_ring close_aliphatic_ring close_aliphatic_ring

>  <prot_clashes>  (246) 
6

>  <NBS phar>  (246) 
0.1

>  <NBS_non-phar>  (246) 
0.5132317176231971

>  <NBS>  (246) 
0.6132317176231971

>  <source_stage>  (246) 
scored

>  <source_iter>  (246) 
10

>  <source_parent_mol>  (246) 
2

>  <source_scenario>  (246) 
1 2 3 1 0 7 0 6 5 2

>  <source_rank_in_scored_call>  (246) 
7

>  <source_current_task>  (246) 
close_aliphatic_ring

>  <scenario>  (246) 
1 2 3 1 0 7 0 6 5

>  <protected_ring_attachments>  (246) 
3,1,0,2|1,0,2;4,5,0,2|5,0,2

>  <current_task>  (246) 
no_task

>  <rotatable_bond_torsions>  (246) 
1,0,2,7;0,2,7,8;2,7,8,9;7,8,9,10;8,9,10,11

$$$$

     RDKit          3D

 13 14  0  0  0  0  0  0  0  0999 V2000
  -27.7840   -7.3030  -31.2470 C   0  0  0  0  0  0  0  0  0  0  0  0
  -27.7650   -6.7930  -32.5120 N   0  0  0  0  0  0  0  0  0  0  0  0
  -27.4520   -8.7500  -31.0070 N   0  0  0  0  0  0  0  0  0  0  0  0
  -28.0630   -5.4830  -32.4450 C   0  0  0  0  0  0  0  0  0  0  0  0
  -28.2650   -5.1960  -31.1300 N   0  0  0  0  0  0  0  0  0  0  0  0
  -28.0980   -6.2940  -30.4140 N   0  0  0  0  0  0  0  0  0  0  0  0
  -27.9480   -6.5660  -28.9590 C   0  0  0  0  0  0  0  0  0  0  0  0
  -28.0670   -9.9120  -30.6770 C   0  0  2  0  0  0  0  0  0  0  0  0
  -28.2640  -10.9500  -31.7410 C   0  0  0  0  0  0  0  0  0  0  0  0
  -28.6140  -12.2430  -31.0470 C   0  0  0  0  0  0  0  0  0  0  0  0
  -29.8890  -12.0070  -30.2630 C   0  0  0  0  0  0  0  0  0  0  0  0
  -29.7210  -11.0020  -29.3230 O   0  0  0  0  0  0  0  0  0  0  0  0
  -29.3640   -9.7950  -29.9150 C   0  0  0  0  0  0  0  0  0  0  0  0
  1  2  2  0
  1  3  1  0
  1  6  1  0
  2  4  1  0
  8  3  1  6
  4  5  2  0
  5  6  1  0
  6  7  1  0
  8  9  1  0
  8 13  1  0
  9 10  1  0
 10 11  1  0
 11 12  1  0
 12 13  1  0
M  END
>  <name>  (247) 
Car Nac Nd0 Car Nac Nac Cs3 C3r C3r C3r C3r O_a C3r

>  <indices>  (247) 
[0, 1, 2]

>  <tasks>  (247) 
probe_placing close_aromatic_ring close_aromatic_ring close_aromatic_ring ring_built build_to_Nac build_to_Nd0 close_aliphatic_ring close_aliphatic_ring close_aliphatic_ring close_aliphatic_ring

>  <prot_clashes>  (247) 
5

>  <NBS phar>  (247) 
0.26000000000000006

>  <NBS_non-phar>  (247) 
0.5059042710524339

>  <NBS>  (247) 
0.765904271052434

>  <source_stage>  (247) 
scored

>  <source_iter>  (247) 
10

>  <source_parent_mol>  (247) 
4

>  <source_scenario>  (247) 
1 2 3 1 0 7 0 6 5 4

>  <source_rank_in_scored_call>  (247) 
0

>  <source_current_task>  (247) 
close_aliphatic_ring

>  <scenario>  (247) 
1 2 3 1 0 7 0 6 5

>  <protected_ring_attachments>  (247) 
3,1,0,2|1,0,2;4,5,0,2|5,0,2

>  <current_task>  (247) 
no_task

>  <rotatable_bond_torsions>  (247) 
1,0,2,7;0,2,7,8;2,7,8,9;7,8,9,10;8,9,10,11

$$$$

     RDKit          3D

 15 16  0  0  0  0  0  0  0  0999 V2000
  -27.8540   -7.5050  -31.3360 C   0  0  0  0  0  0  0  0  0  0  0  0
  -28.0630   -6.8470  -32.5130 N   0  0  0  0  0  0  0  0  0  0  0  0
  -27.4140   -8.9420  -31.3380 N   0  0  0  0  0  0  0  0  0  0  0  0
  -28.4140   -5.5790  -32.2320 C   0  0  0  0  0  0  0  0  0  0  0  0
  -28.4180   -5.4670  -30.8760 N   0  0  0  0  0  0  0  0  0  0  0  0
  -28.0820   -6.6290  -30.3410 N   0  0  0  0  0  0  0  0  0  0  0  0
  -27.6880   -7.0610  -28.9740 C   0  0  0  0  0  0  0  0  0  0  0  0
  -28.7060  -10.0350  -31.6070 C   0  0  1  0  0  0  0  0  0  0  0  0
  -27.7710  -11.1540  -31.7580 C   0  0  0  0  0  0  0  0  0  0  0  0
  -28.4440  -12.4820  -31.7680 C   0  0  0  0  0  0  0  0  0  0  0  0
  -29.3100  -12.6260  -30.1500 S   0  0  1  0  0  0  0  0  0  0  0  0
  -30.1160  -13.8630  -30.1700 O   0  0  0  0  0  0  0  0  0  0  0  0
  -28.1300  -12.8510  -29.2970 O   0  0  0  0  0  0  0  0  0  0  0  0
  -30.4420  -11.1680  -30.2310 C   0  0  0  0  0  0  0  0  0  0  0  0
  -29.5500   -9.9550  -30.3830 C   0  0  0  0  0  0  0  0  0  0  0  0
  1  2  2  0
  1  3  1  0
  1  6  1  0
  2  4  1  0
  8  3  1  1
  4  5  2  0
  5  6  1  0
  6  7  1  0
  8  9  1  0
  8 15  1  0
  9 10  1  0
 11 10  1  6
 11 14  1  0
 11 12  2  0
 11 13  2  0
 14 15  1  0
M  END
>  <name>  (248) 
Car Nac Nd0 Car Nac Nac Cs3 C3r C3r C3r SO2 .=O .=O C3r C3r

>  <indices>  (248) 
[0, 1, 2]

>  <tasks>  (248) 
probe_placing close_aromatic_ring close_aromatic_ring close_aromatic_ring ring_built build_to_Nac build_to_Nd0 close_aliphatic_ring close_aliphatic_ring close_aliphatic_ring build_.=O_to_SO2 build_.=O_to_SO2 close_aliphatic_ring

>  <prot_clashes>  (248) 
7

>  <NBS phar>  (248) 
0.38000000000000006

>  <NBS_non-phar>  (248) 
0.6736319224039714

>  <NBS>  (248) 
1.0536319224039714

>  <source_stage>  (248) 
scored

>  <source_iter>  (248) 
12

>  <source_parent_mol>  (248) 
0

>  <source_scenario>  (248) 
1 2 3 1 0 7 0 6 6 4 0 0

>  <source_rank_in_scored_call>  (248) 
1

>  <source_current_task>  (248) 
close_aliphatic_ring

>  <scenario>  (248) 
1 2 3 1 0 7 0 6 6 4 0

>  <protected_ring_attachments>  (248) 
3,1,0,2|1,0,2;4,5,0,2|5,0,2

>  <current_task>  (248) 
no_task

>  <rotatable_bond_torsions>  (248) 
1,0,2,7;0,2,7,8;2,7,8,9;7,8,9,10;8,9,10,13

$$$$

     RDKit          3D

 16 17  0  0  0  0  0  0  0  0999 V2000
  -27.7940   -7.6930  -31.3560 C   0  0  0  0  0  0  0  0  0  0  0  0
  -28.0740   -7.0360  -32.5180 N   0  0  0  0  0  0  0  0  0  0  0  0
  -27.3600   -9.1320  -31.3840 N   0  0  0  0  0  0  0  0  0  0  0  0
  -28.4010   -5.7660  -32.2170 C   0  0  0  0  0  0  0  0  0  0  0  0
  -28.3200   -5.6530  -30.8640 N   0  0  0  0  0  0  0  0  0  0  0  0
  -27.9550   -6.8160  -30.3500 N   0  0  0  0  0  0  0  0  0  0  0  0
  -27.4770   -7.2480  -29.0100 C   0  0  0  0  0  0  0  0  0  0  0  0
  -28.6710  -10.2200  -31.5700 C   0  0  1  0  0  0  0  0  0  0  0  0
  -27.7520  -11.3430  -31.7790 C   0  0  0  0  0  0  0  0  0  0  0  0
  -28.4290  -12.6680  -31.7450 C   0  0  0  0  0  0  0  0  0  0  0  0
  -29.1920  -12.8080  -30.0750 S   0  0  1  0  0  0  0  0  0  0  0  0
  -30.0020  -14.0410  -30.0430 O   0  0  0  0  0  0  0  0  0  0  0  0
  -27.9610  -13.0370  -29.2980 O   0  0  0  0  0  0  0  0  0  0  0  0
  -30.3210  -11.3450  -30.0860 C   0  0  0  0  0  0  0  0  0  0  0  0
  -29.4360  -10.1360  -30.2960 C   0  0  0  0  0  0  0  0  0  0  0  0
  -28.7230   -7.2150  -28.0740 C   0  0  0  0  0  0  0  0  0  0  0  0
  1  2  2  0
  1  3  1  0
  1  6  1  0
  2  4  1  0
  8  3  1  1
  4  5  2  0
  5  6  1  0
  6  7  1  0
  8  9  1  0
  8 15  1  0
  9 10  1  0
 11 10  1  6
 11 14  1  0
 11 12  2  0
 11 13  2  0
 14 15  1  0
  7 16  1  0
M  END
>  <name>  (249) 
Car Nac Nd0 Car Nac Nac Cs3 C3r C3r C3r SO2 .=O .=O C3r C3r Cs3

>  <indices>  (249) 
[0, 1, 2]

>  <tasks>  (249) 
probe_placing close_aromatic_ring close_aromatic_ring close_aromatic_ring ring_built build_to_Nac build_to_Nd0 close_aliphatic_ring close_aliphatic_ring close_aliphatic_ring build_.=O_to_SO2 build_.=O_to_SO2 close_aliphatic_ring close_aliphatic_ring

>  <prot_clashes>  (249) 
9

>  <NBS phar>  (249) 
0.2800000000000001

>  <NBS_non-phar>  (249) 
0.7494973540306091

>  <NBS>  (249) 
1.0294973540306092

>  <source_stage>  (249) 
scored

>  <source_iter>  (249) 
13

>  <source_parent_mol>  (249) 
1

>  <source_scenario>  (249) 
1 2 3 1 0 7 0 6 6 4 0 0 1

>  <source_rank_in_scored_call>  (249) 
18

>  <source_current_task>  (249) 
no_task

>  <scenario>  (249) 
1 2 3 1 0 7 0 6 6 4 0 0

>  <protected_ring_attachments>  (249) 
3,1,0,2|1,0,2;4,5,0,2|5,0,2;9,8,7,2|8,7,2;13,14,7,2|14,7,2

>  <current_task>  (249) 
no_task

>  <rotatable_bond_torsions>  (249) 
1,0,2,7;0,2,7,8

$$$$

     RDKit          3D

 16 17  0  0  0  0  0  0  0  0999 V2000
  -27.7440   -7.6660  -31.3510 C   0  0  0  0  0  0  0  0  0  0  0  0
  -28.0560   -7.0000  -32.5000 N   0  0  0  0  0  0  0  0  0  0  0  0
  -27.3560   -9.1180  -31.3980 N   0  0  0  0  0  0  0  0  0  0  0  0
  -28.3310   -5.7210  -32.1850 C   0  0  0  0  0  0  0  0  0  0  0  0
  -28.1850   -5.6110  -30.8370 N   0  0  0  0  0  0  0  0  0  0  0  0
  -27.8320   -6.7850  -30.3390 N   0  0  0  0  0  0  0  0  0  0  0  0
  -27.3080   -7.2320  -29.0220 C   0  0  0  0  0  0  0  0  0  0  0  0
  -28.7060  -10.1650  -31.5230 C   0  0  1  0  0  0  0  0  0  0  0  0
  -27.8310  -11.3150  -31.7720 C   0  0  0  0  0  0  0  0  0  0  0  0
  -28.5460  -12.6200  -31.7060 C   0  0  0  0  0  0  0  0  0  0  0  0
  -29.2360  -12.7370  -30.0040 S   0  0  1  0  0  0  0  0  0  0  0  0
  -30.0820  -13.9450  -29.9340 O   0  0  0  0  0  0  0  0  0  0  0  0
  -27.9790  -13.0030  -29.2830 O   0  0  0  0  0  0  0  0  0  0  0  0
  -30.3200  -11.2410  -29.9650 C   0  0  0  0  0  0  0  0  0  0  0  0
  -29.4090  -10.0590  -30.2150 C   0  0  0  0  0  0  0  0  0  0  0  0
  -28.4780   -7.5320  -28.1240 C   0  0  0  0  0  0  0  0  0  0  0  0
  1  2  2  0
  1  3  1  0
  1  6  1  0
  2  4  1  0
  8  3  1  1
  4  5  2  0
  5  6  1  0
  6  7  1  0
  8  9  1  0
  8 15  1  0
  9 10  1  0
 11 10  1  6
 11 14  1  0
 11 12  2  0
 11 13  2  0
 14 15  1  0
  7 16  1  0
M  END
>  <name>  (250) 
Car Nac Nd0 Car Nac Nac Cs3 C3r C3r C3r SO2 .=O .=O C3r C3r Cs3

>  <indices>  (250) 
[0, 1, 2]

>  <tasks>  (250) 
probe_placing close_aromatic_ring close_aromatic_ring close_aromatic_ring ring_built build_to_Nac build_to_Nd0 close_aliphatic_ring close_aliphatic_ring close_aliphatic_ring build_.=O_to_SO2 build_.=O_to_SO2 close_aliphatic_ring close_aliphatic_ring

>  <prot_clashes>  (250) 
7

>  <NBS phar>  (250) 
0.26000000000000006

>  <NBS_non-phar>  (250) 
0.7066585421562195

>  <NBS>  (250) 
0.9666585421562195

>  <source_stage>  (250) 
scored

>  <source_iter>  (250) 
13

>  <source_parent_mol>  (250) 
1

>  <source_scenario>  (250) 
1 2 3 1 0 7 0 6 6 4 0 0 1

>  <source_rank_in_scored_call>  (250) 
25

>  <source_current_task>  (250) 
no_task

>  <scenario>  (250) 
1 2 3 1 0 7 0 6 6 4 0 0

>  <protected_ring_attachments>  (250) 
3,1,0,2|1,0,2;4,5,0,2|5,0,2;9,8,7,2|8,7,2;13,14,7,2|14,7,2

>  <current_task>  (250) 
no_task

>  <rotatable_bond_torsions>  (250) 
1,0,2,7;0,2,7,8

$$$$

     RDKit          3D

 16 17  0  0  0  0  0  0  0  0999 V2000
  -27.8520   -7.5680  -31.4830 C   0  0  0  0  0  0  0  0  0  0  0  0
  -28.0630   -6.9910  -32.7010 N   0  0  0  0  0  0  0  0  0  0  0  0
  -27.3970   -8.9970  -31.3900 N   0  0  0  0  0  0  0  0  0  0  0  0
  -28.4290   -5.7110  -32.5050 C   0  0  0  0  0  0  0  0  0  0  0  0
  -28.4400   -5.5110  -31.1600 N   0  0  0  0  0  0  0  0  0  0  0  0
  -28.0940   -6.6310  -30.5480 N   0  0  0  0  0  0  0  0  0  0  0  0
  -27.7010   -6.9690  -29.1550 C   0  0  0  0  0  0  0  0  0  0  0  0
  -28.6770  -10.1200  -31.5910 C   0  0  1  0  0  0  0  0  0  0  0  0
  -27.7290  -11.2360  -31.6650 C   0  0  0  0  0  0  0  0  0  0  0  0
  -28.3880  -12.5690  -31.5910 C   0  0  0  0  0  0  0  0  0  0  0  0
  -29.2590  -12.6160  -29.9700 S   0  0  1  0  0  0  0  0  0  0  0  0
  -30.0520  -13.8600  -29.9110 O   0  0  0  0  0  0  0  0  0  0  0  0
  -28.0810  -12.7720  -29.1000 O   0  0  0  0  0  0  0  0  0  0  0  0
  -30.4060  -11.1790  -30.1500 C   0  0  0  0  0  0  0  0  0  0  0  0
  -29.5260   -9.9690  -30.3780 C   0  0  0  0  0  0  0  0  0  0  0  0
  -28.4350   -6.1260  -28.1360 C   0  0  0  0  0  0  0  0  0  0  0  0
  1  2  2  0
  1  3  1  0
  1  6  1  0
  2  4  1  0
  8  3  1  1
  4  5  2  0
  5  6  1  0
  6  7  1  0
  8  9  1  0
  8 15  1  0
  9 10  1  0
 11 10  1  6
 11 14  1  0
 11 12  2  0
 11 13  2  0
 14 15  1  0
  7 16  1  0
M  END
>  <name>  (251) 
Car Nac Nd0 Car Nac Nac Cs3 C3r C3r C3r SO2 .=O .=O C3r C3r Cs3

>  <indices>  (251) 
[0, 1, 2]

>  <tasks>  (251) 
probe_placing close_aromatic_ring close_aromatic_ring close_aromatic_ring ring_built build_to_Nac build_to_Nd0 close_aliphatic_ring close_aliphatic_ring close_aliphatic_ring build_.=O_to_SO2 build_.=O_to_SO2 close_aliphatic_ring close_aliphatic_ring

>  <prot_clashes>  (251) 
12

>  <NBS phar>  (251) 
0.2800000000000001

>  <NBS_non-phar>  (251) 
0.6583951711654663

>  <NBS>  (251) 
0.9383951711654663

>  <source_stage>  (251) 
scored

>  <source_iter>  (251) 
13

>  <source_parent_mol>  (251) 
1

>  <source_scenario>  (251) 
1 2 3 1 0 7 0 6 6 4 0 0 1

>  <source_rank_in_scored_call>  (251) 
26

>  <source_current_task>  (251) 
no_task

>  <scenario>  (251) 
1 2 3 1 0 7 0 6 6 4 0 0

>  <protected_ring_attachments>  (251) 
3,1,0,2|1,0,2;4,5,0,2|5,0,2;9,8,7,2|8,7,2;13,14,7,2|14,7,2

>  <current_task>  (251) 
no_task

>  <rotatable_bond_torsions>  (251) 
1,0,2,7;0,2,7,8

$$$$

     RDKit          3D

 16 17  0  0  0  0  0  0  0  0999 V2000
  -27.7660   -7.7410  -31.3390 C   0  0  0  0  0  0  0  0  0  0  0  0
  -28.0850   -7.0750  -32.4870 N   0  0  0  0  0  0  0  0  0  0  0  0
  -27.3870   -9.1940  -31.3860 N   0  0  0  0  0  0  0  0  0  0  0  0
  -28.3500   -5.7940  -32.1730 C   0  0  0  0  0  0  0  0  0  0  0  0
  -28.1920   -5.6820  -30.8260 N   0  0  0  0  0  0  0  0  0  0  0  0
  -27.8420   -6.8560  -30.3290 N   0  0  0  0  0  0  0  0  0  0  0  0
  -27.3090   -7.3040  -29.0150 C   0  0  0  0  0  0  0  0  0  0  0  0
  -28.7430  -10.2350  -31.4970 C   0  0  1  0  0  0  0  0  0  0  0  0
  -27.8770  -11.3900  -31.7510 C   0  0  0  0  0  0  0  0  0  0  0  0
  -28.5990  -12.6900  -31.6760 C   0  0  0  0  0  0  0  0  0  0  0  0
  -29.2750  -12.8000  -29.9680 S   0  0  1  0  0  0  0  0  0  0  0  0
  -30.1260  -14.0040  -29.8880 O   0  0  0  0  0  0  0  0  0  0  0  0
  -28.0140  -13.0710  -29.2570 O   0  0  0  0  0  0  0  0  0  0  0  0
  -30.3510  -11.2980  -29.9230 C   0  0  0  0  0  0  0  0  0  0  0  0
  -29.4350  -10.1210  -30.1840 C   0  0  0  0  0  0  0  0  0  0  0  0
  -28.4930   -7.6600  -28.1050 C   0  0  0  0  0  0  0  0  0  0  0  0
  1  2  2  0
  1  3  1  0
  1  6  1  0
  2  4  1  0
  8  3  1  1
  4  5  2  0
  5  6  1  0
  6  7  1  0
  8  9  1  0
  8 15  1  0
  9 10  1  0
 11 10  1  6
 11 14  1  0
 11 12  2  0
 11 13  2  0
 14 15  1  0
  7 16  1  0
M  END
>  <name>  (252) 
Car Nac Nd0 Car Nac Nac Cs3 C3r C3r C3r SO2 .=O .=O C3r C3r Cs3

>  <indices>  (252) 
[0, 1, 2]

>  <tasks>  (252) 
probe_placing close_aromatic_ring close_aromatic_ring close_aromatic_ring ring_built build_to_Nac build_to_Nd0 close_aliphatic_ring close_aliphatic_ring close_aliphatic_ring build_.=O_to_SO2 build_.=O_to_SO2 close_aliphatic_ring close_aliphatic_ring

>  <prot_clashes>  (252) 
7

>  <NBS phar>  (252) 
0.26000000000000006

>  <NBS_non-phar>  (252) 
0.6618202924728394

>  <NBS>  (252) 
0.9218202924728394

>  <source_stage>  (252) 
scored

>  <source_iter>  (252) 
13

>  <source_parent_mol>  (252) 
1

>  <source_scenario>  (252) 
1 2 3 1 0 7 0 6 6 4 0 0 1

>  <source_rank_in_scored_call>  (252) 
30

>  <source_current_task>  (252) 
no_task

>  <scenario>  (252) 
1 2 3 1 0 7 0 6 6 4 0 0

>  <protected_ring_attachments>  (252) 
3,1,0,2|1,0,2;4,5,0,2|5,0,2;9,8,7,2|8,7,2;13,14,7,2|14,7,2

>  <current_task>  (252) 
no_task

>  <rotatable_bond_torsions>  (252) 
1,0,2,7;0,2,7,8

$$$$

     RDKit          3D

 16 17  0  0  0  0  0  0  0  0999 V2000
  -27.7300   -8.2800  -30.8640 C   0  0  0  0  0  0  0  0  0  0  0  0
  -27.9480   -7.5000  -31.9620 N   0  0  0  0  0  0  0  0  0  0  0  0
  -27.4360   -9.7460  -31.0210 N   0  0  0  0  0  0  0  0  0  0  0  0
  -28.1530   -6.2360  -31.5480 C   0  0  0  0  0  0  0  0  0  0  0  0
  -28.0590   -6.2500  -30.1910 N   0  0  0  0  0  0  0  0  0  0  0  0
  -27.8060   -7.4830  -29.7830 N   0  0  0  0  0  0  0  0  0  0  0  0
  -27.3700   -8.0740  -28.4910 C   0  0  0  0  0  0  0  0  0  0  0  0
  -28.8440  -10.6840  -31.2880 C   0  0  1  0  0  0  0  0  0  0  0  0
  -28.0370  -11.8670  -31.6020 C   0  0  0  0  0  0  0  0  0  0  0  0
  -28.8370  -13.1200  -31.6770 C   0  0  0  0  0  0  0  0  0  0  0  0
  -29.6080  -13.3310  -30.0180 S   0  0  1  0  0  0  0  0  0  0  0  0
  -30.5320  -14.4810  -30.0860 O   0  0  0  0  0  0  0  0  0  0  0  0
  -28.4040  -13.7430  -29.2760 O   0  0  0  0  0  0  0  0  0  0  0  0
  -30.5930  -11.7730  -29.8920 C   0  0  0  0  0  0  0  0  0  0  0  0
  -29.5960  -10.6390  -30.0040 C   0  0  0  0  0  0  0  0  0  0  0  0
  -28.4320   -5.0380  -32.4210 C   0  0  0  0  0  0  0  0  0  0  0  0
  1  2  2  0
  1  3  1  0
  1  6  1  0
  2  4  1  0
  8  3  1  1
  4 16  1  0
  4  5  2  0
  5  6  1  0
  6  7  1  0
  8  9  1  0
  8 15  1  0
  9 10  1  0
 11 10  1  6
 11 12  2  0
 11 14  1  0
 11 13  2  0
 14 15  1  0
M  END
>  <name>  (253) 
Car Nac Nd0 Car Nac Nac Cs3 C3r C3r C3r SO2 .=O .=O C3r C3r Cs3

>  <indices>  (253) 
[0, 1, 2]

>  <tasks>  (253) 
probe_placing close_aromatic_ring close_aromatic_ring close_aromatic_ring ring_built build_to_Nac build_to_Nd0 close_aliphatic_ring close_aliphatic_ring close_aliphatic_ring build_.=O_to_SO2 build_.=O_to_SO2 close_aliphatic_ring close_aliphatic_ring

>  <prot_clashes>  (253) 
11

>  <NBS phar>  (253) 
0.22000000000000003

>  <NBS_non-phar>  (253) 
0.5692344903945923

>  <NBS>  (253) 
0.7892344903945923

>  <source_stage>  (253) 
scored

>  <source_iter>  (253) 
13

>  <source_parent_mol>  (253) 
1

>  <source_scenario>  (253) 
1 2 3 1 0 7 0 6 6 4 0 0 1

>  <source_rank_in_scored_call>  (253) 
41

>  <source_current_task>  (253) 
no_task

>  <scenario>  (253) 
1 2 3 1 0 7 0 6 6 4 0 0

>  <protected_ring_attachments>  (253) 
3,1,0,2|1,0,2;4,5,0,2|5,0,2;9,8,7,2|8,7,2;13,14,7,2|14,7,2

>  <current_task>  (253) 
no_task

>  <rotatable_bond_torsions>  (253) 
1,0,2,7;0,2,7,8

$$$$

     RDKit          3D

 12 13  0  0  0  0  0  0  0  0999 V2000
  -27.9930   -7.0760  -30.3740 C   0  0  0  0  0  0  0  0  0  0  0  0
  -27.6880   -7.4420  -31.6520 N   0  0  0  0  0  0  0  0  0  0  0  0
  -27.6570   -7.9810  -29.2220 N   0  0  0  0  0  0  0  0  0  0  0  0
  -28.0590   -6.4490  -32.4790 C   0  0  0  0  0  0  0  0  0  0  0  0
  -28.5920   -5.4700  -31.6970 N   0  0  0  0  0  0  0  0  0  0  0  0
  -28.5510   -5.8510  -30.4330 N   0  0  0  0  0  0  0  0  0  0  0  0
  -28.7500   -5.1530  -29.1350 C   0  0  0  0  0  0  0  0  0  0  0  0
  -28.7770   -8.9360  -28.3930 C   0  0  2  0  0  0  0  0  0  0  0  0
  -27.7220  -10.0260  -28.3960 C   0  0  0  0  0  0  0  0  0  0  0  0
  -28.3920  -11.2430  -28.3000 O   0  0  0  0  0  0  0  0  0  0  0  0
  -29.7610  -11.0380  -28.5330 C   0  0  0  0  0  0  0  0  0  0  0  0
  -29.9270   -9.6420  -29.0860 C   0  0  0  0  0  0  0  0  0  0  0  0
  1  2  2  0
  1  6  1  0
  1  3  1  0
  2  4  1  0
  8  3  1  6
  4  5  2  0
  5  6  1  0
  6  7  1  0
  8 12  1  0
  8  9  1  0
  9 10  1  0
 10 11  1  0
 11 12  1  0
M  END
>  <name>  (254) 
Car Nac Nd0 Car Nac Nac Cs3 C3r C3r O_a C3r C3r

>  <indices>  (254) 
[0, 1, 2]

>  <tasks>  (254) 
probe_placing close_aromatic_ring close_aromatic_ring close_aromatic_ring ring_built build_to_Nac build_to_Nd0 close_aliphatic_ring close_aliphatic_ring close_aliphatic_ring

>  <prot_clashes>  (254) 
5

>  <NBS phar>  (254) 
0.0

>  <NBS_non-phar>  (254) 
0.326227863629659

>  <NBS>  (254) 
0.326227863629659

>  <source_stage>  (254) 
scored

>  <source_iter>  (254) 
9

>  <source_parent_mol>  (254) 
1

>  <source_scenario>  (254) 
1 2 3 1 0 7 0 8 1

>  <source_rank_in_scored_call>  (254) 
3

>  <source_current_task>  (254) 
close_aliphatic_ring

>  <scenario>  (254) 
1 2 3 1 0 7 0 8

>  <protected_ring_attachments>  (254) 
3,1,0,2|1,0,2;4,5,0,2|5,0,2

>  <current_task>  (254) 
no_task

>  <rotatable_bond_torsions>  (254) 
1,0,2,7;0,2,7,8;2,7,8,9;7,8,9,10

$$$$

     RDKit          3D

 13 14  0  0  0  0  0  0  0  0999 V2000
  -27.9690   -7.0870  -30.5180 C   0  0  0  0  0  0  0  0  0  0  0  0
  -27.6590   -7.1100  -31.8460 N   0  0  0  0  0  0  0  0  0  0  0  0
  -27.6180   -8.2510  -29.6350 N   0  0  0  0  0  0  0  0  0  0  0  0
  -28.0470   -5.9440  -32.3940 C   0  0  0  0  0  0  0  0  0  0  0  0
  -28.5960   -5.2070  -31.3900 N   0  0  0  0  0  0  0  0  0  0  0  0
  -28.5490   -5.8970  -30.2650 N   0  0  0  0  0  0  0  0  0  0  0  0
  -28.7590   -5.5560  -28.8340 C   0  0  0  0  0  0  0  0  0  0  0  0
  -28.6470   -9.2950  -29.4640 C   0  0  1  0  0  0  0  0  0  0  0  0
  -27.6840  -10.4540  -29.2700 C   0  0  0  0  0  0  0  0  0  0  0  0
  -28.1970  -11.6320  -29.8070 O   0  0  0  0  0  0  0  0  0  0  0  0
  -29.4000  -12.0050  -29.2210 C   0  0  0  0  0  0  0  0  0  0  0  0
  -30.4470  -10.9130  -29.4140 C   0  0  0  0  0  0  0  0  0  0  0  0
  -29.9410   -9.6330  -28.7600 C   0  0  0  0  0  0  0  0  0  0  0  0
  1  2  2  0
  1  6  1  0
  1  3  1  0
  2  4  1  0
  8  3  1  1
  4  5  2  0
  5  6  1  0
  6  7  1  0
  8  9  1  0
  8 13  1  0
  9 10  1  0
 10 11  1  0
 11 12  1  0
 12 13  1  0
M  END
>  <name>  (255) 
Car Nac Nd0 Car Nac Nac Cs3 C3r C3r O_a C3r C3r C3r

>  <indices>  (255) 
[0, 1, 2]

>  <tasks>  (255) 
probe_placing close_aromatic_ring close_aromatic_ring close_aromatic_ring ring_built build_to_Nac build_to_Nd0 close_aliphatic_ring close_aliphatic_ring close_aliphatic_ring close_aliphatic_ring

>  <prot_clashes>  (255) 
8

>  <NBS phar>  (255) 
0.1

>  <NBS_non-phar>  (255) 
0.49526500701904297

>  <NBS>  (255) 
0.595265007019043

>  <source_stage>  (255) 
scored

>  <source_iter>  (255) 
10

>  <source_parent_mol>  (255) 
0

>  <source_scenario>  (255) 
1 2 3 1 0 7 0 8 1 0

>  <source_rank_in_scored_call>  (255) 
2

>  <source_current_task>  (255) 
close_aliphatic_ring

>  <scenario>  (255) 
1 2 3 1 0 7 0 8 1

>  <protected_ring_attachments>  (255) 
3,1,0,2|1,0,2;4,5,0,2|5,0,2

>  <current_task>  (255) 
no_task

>  <rotatable_bond_torsions>  (255) 
1,0,2,7;0,2,7,8;2,7,8,9;7,8,9,10;8,9,10,11

$$$$

     RDKit          3D

 14 15  0  0  0  0  0  0  0  0999 V2000
  -28.0700   -7.1410  -30.5030 C   0  0  0  0  0  0  0  0  0  0  0  0
  -27.6650   -7.3030  -31.7950 N   0  0  0  0  0  0  0  0  0  0  0  0
  -27.7070   -8.1590  -29.4590 N   0  0  0  0  0  0  0  0  0  0  0  0
  -28.0890   -6.2450  -32.5110 C   0  0  0  0  0  0  0  0  0  0  0  0
  -28.7560   -5.4340  -31.6450 N   0  0  0  0  0  0  0  0  0  0  0  0
  -28.7450   -5.9760  -30.4410 N   0  0  0  0  0  0  0  0  0  0  0  0
  -29.0790   -5.4790  -29.0810 C   0  0  0  0  0  0  0  0  0  0  0  0
  -28.6740   -9.2480  -29.2220 C   0  0  1  0  0  0  0  0  0  0  0  0
  -27.6520  -10.2990  -28.8220 C   0  0  0  0  0  0  0  0  0  0  0  0
  -28.0460  -11.5690  -29.2360 O   0  0  0  0  0  0  0  0  0  0  0  0
  -29.2600  -11.9570  -28.6840 C   0  0  0  0  0  0  0  0  0  0  0  0
  -30.3610  -10.9780  -29.0800 C   0  0  0  0  0  0  0  0  0  0  0  0
  -29.9900   -9.5930  -28.5640 C   0  0  0  0  0  0  0  0  0  0  0  0
  -28.5120   -4.0480  -28.7420 C   0  0  0  0  0  0  0  0  0  0  0  0
  1  2  2  0
  1  6  1  0
  1  3  1  0
  2  4  1  0
  8  3  1  1
  4  5  2  0
  5  6  1  0
  6  7  1  0
  8  9  1  0
  8 13  1  0
  9 10  1  0
 10 11  1  0
 11 12  1  0
 12 13  1  0
  7 14  1  0
M  END
>  <name>  (256) 
Car Nac Nd0 Car Nac Nac Cs3 C3r C3r O_a C3r C3r C3r Cs3

>  <indices>  (256) 
[0, 1, 2]

>  <tasks>  (256) 
probe_placing close_aromatic_ring close_aromatic_ring close_aromatic_ring ring_built build_to_Nac build_to_Nd0 close_aliphatic_ring close_aliphatic_ring close_aliphatic_ring close_aliphatic_ring close_aliphatic_ring

>  <prot_clashes>  (256) 
9

>  <NBS phar>  (256) 
0.13999999999999999

>  <NBS_non-phar>  (256) 
0.47935346194675993

>  <NBS>  (256) 
0.6193534619467599

>  <source_stage>  (256) 
scored

>  <source_iter>  (256) 
11

>  <source_parent_mol>  (256) 
2

>  <source_scenario>  (256) 
1 2 3 1 0 7 0 8 1 0 2

>  <source_rank_in_scored_call>  (256) 
43

>  <source_current_task>  (256) 
no_task

>  <scenario>  (256) 
1 2 3 1 0 7 0 8 1 0

>  <protected_ring_attachments>  (256) 
3,1,0,2|1,0,2;4,5,0,2|5,0,2;9,8,7,2|8,7,2;11,12,7,2|12,7,2

>  <current_task>  (256) 
no_task

>  <rotatable_bond_torsions>  (256) 
1,0,2,7;0,2,7,8

$$$$

     RDKit          3D

 14 15  0  0  0  0  0  0  0  0999 V2000
  -27.8930   -7.3500  -31.0920 C   0  0  0  0  0  0  0  0  0  0  0  0
  -28.0070   -7.0140  -32.4090 N   0  0  0  0  0  0  0  0  0  0  0  0
  -27.4640   -8.7340  -30.6940 N   0  0  0  0  0  0  0  0  0  0  0  0
  -28.3700   -5.7210  -32.4890 C   0  0  0  0  0  0  0  0  0  0  0  0
  -28.4760   -5.2680  -31.2100 N   0  0  0  0  0  0  0  0  0  0  0  0
  -28.1900   -6.2490  -30.3730 N   0  0  0  0  0  0  0  0  0  0  0  0
  -27.9050   -6.3150  -28.9160 C   0  0  0  0  0  0  0  0  0  0  0  0
  -28.5330   -9.7240  -30.4580 C   0  0  1  0  0  0  0  0  0  0  0  0
  -27.7350  -10.9430  -30.8890 C   0  0  0  0  0  0  0  0  0  0  0  0
  -28.5520  -11.8900  -31.5010 O   0  0  0  0  0  0  0  0  0  0  0  0
  -29.5610  -12.3450  -30.6620 C   0  0  0  0  0  0  0  0  0  0  0  0
  -30.4480  -11.1860  -30.2190 C   0  0  0  0  0  0  0  0  0  0  0  0
  -29.5870  -10.1730  -29.4730 C   0  0  0  0  0  0  0  0  0  0  0  0
  -27.6430   -7.6340  -28.2840 C   0  0  0  0  0  0  0  0  0  0  0  0
  1  2  2  0
  1  3  1  0
  1  6  1  0
  2  4  1  0
  8  3  1  1
  4  5  2  0
  5  6  1  0
  6  7  1  0
  8  9  1  0
  8 13  1  0
  9 10  1  0
 10 11  1  0
 11 12  1  0
 12 13  1  0
  7 14  1  0
M  END
>  <name>  (257) 
Car Nac Nd0 Car Nac Nac Cs3 C3r C3r O_a C3r C3r C3r Cs3

>  <indices>  (257) 
[0, 1, 2]

>  <tasks>  (257) 
probe_placing close_aromatic_ring close_aromatic_ring close_aromatic_ring ring_built build_to_Nac build_to_Nd0 close_aliphatic_ring close_aliphatic_ring close_aliphatic_ring close_aliphatic_ring close_aliphatic_ring

>  <prot_clashes>  (257) 
9

>  <NBS phar>  (257) 
0.12

>  <NBS_non-phar>  (257) 
0.4962931360517229

>  <NBS>  (257) 
0.616293136051723

>  <source_stage>  (257) 
scored

>  <source_iter>  (257) 
11

>  <source_parent_mol>  (257) 
2

>  <source_scenario>  (257) 
1 2 3 1 0 7 0 8 1 0 2

>  <source_rank_in_scored_call>  (257) 
46

>  <source_current_task>  (257) 
no_task

>  <scenario>  (257) 
1 2 3 1 0 7 0 8 1 0

>  <protected_ring_attachments>  (257) 
3,1,0,2|1,0,2;4,5,0,2|5,0,2;9,8,7,2|8,7,2;11,12,7,2|12,7,2

>  <current_task>  (257) 
no_task

>  <rotatable_bond_torsions>  (257) 
1,0,2,7;0,2,7,8

$$$$

     RDKit          3D

 14 15  0  0  0  0  0  0  0  0999 V2000
  -27.7320   -6.9260  -30.7450 C   0  0  0  0  0  0  0  0  0  0  0  0
  -27.6950   -7.0490  -32.1030 N   0  0  0  0  0  0  0  0  0  0  0  0
  -27.3340   -8.0780  -29.8660 N   0  0  0  0  0  0  0  0  0  0  0  0
  -28.0620   -5.8750  -32.6470 C   0  0  0  0  0  0  0  0  0  0  0  0
  -28.3240   -5.0320  -31.6100 N   0  0  0  0  0  0  0  0  0  0  0  0
  -28.1260   -5.6670  -30.4700 N   0  0  0  0  0  0  0  0  0  0  0  0
  -28.0130   -5.2350  -29.0520 C   0  0  0  0  0  0  0  0  0  0  0  0
  -28.4100   -8.9890  -29.4290 C   0  0  1  0  0  0  0  0  0  0  0  0
  -27.5510  -10.2390  -29.3420 C   0  0  0  0  0  0  0  0  0  0  0  0
  -28.2770  -11.3760  -29.6870 O   0  0  0  0  0  0  0  0  0  0  0  0
  -29.3720  -11.5810  -28.8570 C   0  0  0  0  0  0  0  0  0  0  0  0
  -30.3200  -10.3880  -28.9230 C   0  0  0  0  0  0  0  0  0  0  0  0
  -29.5670   -9.1430  -28.4690 C   0  0  0  0  0  0  0  0  0  0  0  0
  -29.3260   -5.5840  -28.3950 C   0  0  0  0  0  0  0  0  0  0  0  0
  1  2  2  0
  1  6  1  0
  1  3  1  0
  2  4  1  0
  8  3  1  1
  4  5  2  0
  5  6  1  0
  6  7  1  0
  8  9  1  0
  8 13  1  0
  9 10  1  0
 10 11  1  0
 11 12  1  0
 12 13  1  0
  7 14  1  0
M  END
>  <name>  (258) 
Car Nac Nd0 Car Nac Nac Cs3 C3r C3r O_a C3r C3r C3r Cs3

>  <indices>  (258) 
[0, 1, 2]

>  <tasks>  (258) 
probe_placing close_aromatic_ring close_aromatic_ring close_aromatic_ring ring_built build_to_Nac build_to_Nd0 close_aliphatic_ring close_aliphatic_ring close_aliphatic_ring close_aliphatic_ring close_aliphatic_ring

>  <prot_clashes>  (258) 
11

>  <NBS phar>  (258) 
0.13999999999999999

>  <NBS_non-phar>  (258) 
0.4698296955653599

>  <NBS>  (258) 
0.6098296955653599

>  <source_stage>  (258) 
scored

>  <source_iter>  (258) 
11

>  <source_parent_mol>  (258) 
2

>  <source_scenario>  (258) 
1 2 3 1 0 7 0 8 1 0 2

>  <source_rank_in_scored_call>  (258) 
48

>  <source_current_task>  (258) 
no_task

>  <scenario>  (258) 
1 2 3 1 0 7 0 8 1 0

>  <protected_ring_attachments>  (258) 
3,1,0,2|1,0,2;4,5,0,2|5,0,2;9,8,7,2|8,7,2;11,12,7,2|12,7,2

>  <current_task>  (258) 
no_task

>  <rotatable_bond_torsions>  (258) 
1,0,2,7;0,2,7,8

$$$$

     RDKit          3D

 14 15  0  0  0  0  0  0  0  0999 V2000
  -27.9740   -7.0770  -30.5500 C   0  0  0  0  0  0  0  0  0  0  0  0
  -27.6740   -7.1090  -31.8800 N   0  0  0  0  0  0  0  0  0  0  0  0
  -27.6190   -8.2370  -29.6630 N   0  0  0  0  0  0  0  0  0  0  0  0
  -28.0630   -5.9450  -32.4320 C   0  0  0  0  0  0  0  0  0  0  0  0
  -28.6030   -5.2010  -31.4280 N   0  0  0  0  0  0  0  0  0  0  0  0
  -28.5490   -5.8850  -30.3000 N   0  0  0  0  0  0  0  0  0  0  0  0
  -28.7470   -5.5350  -28.8690 C   0  0  0  0  0  0  0  0  0  0  0  0
  -28.6490   -9.2780  -29.4790 C   0  0  1  0  0  0  0  0  0  0  0  0
  -27.6870  -10.4380  -29.2850 C   0  0  0  0  0  0  0  0  0  0  0  0
  -28.2070  -11.6180  -29.8120 O   0  0  0  0  0  0  0  0  0  0  0  0
  -29.4060  -11.9850  -29.2140 C   0  0  0  0  0  0  0  0  0  0  0  0
  -30.4520  -10.8910  -29.4060 C   0  0  0  0  0  0  0  0  0  0  0  0
  -29.9380   -9.6090  -28.7630 C   0  0  0  0  0  0  0  0  0  0  0  0
  -28.6860   -3.9470  -28.7640 C   0  0  0  0  0  0  0  0  0  0  0  0
  1  2  2  0
  1  6  1  0
  1  3  1  0
  2  4  1  0
  8  3  1  1
  4  5  2  0
  5  6  1  0
  6  7  1  0
  8  9  1  0
  8 13  1  0
  9 10  1  0
 10 11  1  0
 11 12  1  0
 12 13  1  0
  7 14  1  0
M  END
>  <name>  (259) 
Car Nac Nd0 Car Nac Nac Cs3 C3r C3r O_a C3r C3r C3r Cs3

>  <indices>  (259) 
[0, 1, 2]

>  <tasks>  (259) 
probe_placing close_aromatic_ring close_aromatic_ring close_aromatic_ring ring_built build_to_Nac build_to_Nd0 close_aliphatic_ring close_aliphatic_ring close_aliphatic_ring close_aliphatic_ring close_aliphatic_ring

>  <prot_clashes>  (259) 
9

>  <NBS phar>  (259) 
0.12

>  <NBS_non-phar>  (259) 
0.47084018162318636

>  <NBS>  (259) 
0.5908401816231863

>  <source_stage>  (259) 
scored

>  <source_iter>  (259) 
11

>  <source_parent_mol>  (259) 
2

>  <source_scenario>  (259) 
1 2 3 1 0 7 0 8 1 0 2

>  <source_rank_in_scored_call>  (259) 
60

>  <source_current_task>  (259) 
no_task

>  <scenario>  (259) 
1 2 3 1 0 7 0 8 1 0

>  <protected_ring_attachments>  (259) 
3,1,0,2|1,0,2;4,5,0,2|5,0,2;9,8,7,2|8,7,2;11,12,7,2|12,7,2

>  <current_task>  (259) 
no_task

>  <rotatable_bond_torsions>  (259) 
1,0,2,7;0,2,7,8

$$$$

     RDKit          3D

 14 15  0  0  0  0  0  0  0  0999 V2000
  -28.0130   -7.1030  -30.5550 C   0  0  0  0  0  0  0  0  0  0  0  0
  -27.6430   -7.2070  -31.8640 N   0  0  0  0  0  0  0  0  0  0  0  0
  -27.6470   -8.1800  -29.5740 N   0  0  0  0  0  0  0  0  0  0  0  0
  -28.0610   -6.1050  -32.5130 C   0  0  0  0  0  0  0  0  0  0  0  0
  -28.6870   -5.3250  -31.5900 N   0  0  0  0  0  0  0  0  0  0  0  0
  -28.6580   -5.9280  -30.4160 N   0  0  0  0  0  0  0  0  0  0  0  0
  -28.9470   -5.4940  -29.0240 C   0  0  0  0  0  0  0  0  0  0  0  0
  -28.6330   -9.2590  -29.3670 C   0  0  1  0  0  0  0  0  0  0  0  0
  -27.6270  -10.3510  -29.0470 C   0  0  0  0  0  0  0  0  0  0  0  0
  -28.0600  -11.5900  -29.5150 O   0  0  0  0  0  0  0  0  0  0  0  0
  -29.2690  -11.9780  -28.9520 C   0  0  0  0  0  0  0  0  0  0  0  0
  -30.3560  -10.9570  -29.2690 C   0  0  0  0  0  0  0  0  0  0  0  0
  -29.9400   -9.6090  -28.6930 C   0  0  0  0  0  0  0  0  0  0  0  0
  -28.6620   -3.9250  -28.6920 C   0  0  0  0  0  0  0  0  0  0  0  0
  1  2  2  0
  1  6  1  0
  1  3  1  0
  2  4  1  0
  8  3  1  1
  4  5  2  0
  5  6  1  0
  6  7  1  0
  8  9  1  0
  8 13  1  0
  9 10  1  0
 10 11  1  0
 11 12  1  0
 12 13  1  0
  7 14  1  0
M  END
>  <name>  (260) 
Car Nac Nd0 Car Nac Nac Cs3 C3r C3r O_a C3r C3r C3r Cs3

>  <indices>  (260) 
[0, 1, 2]

>  <tasks>  (260) 
probe_placing close_aromatic_ring close_aromatic_ring close_aromatic_ring ring_built build_to_Nac build_to_Nd0 close_aliphatic_ring close_aliphatic_ring close_aliphatic_ring close_aliphatic_ring close_aliphatic_ring

>  <prot_clashes>  (260) 
10

>  <NBS phar>  (260) 
0.12

>  <NBS_non-phar>  (260) 
0.4659343787602016

>  <NBS>  (260) 
0.5859343787602016

>  <source_stage>  (260) 
scored

>  <source_iter>  (260) 
11

>  <source_parent_mol>  (260) 
2

>  <source_scenario>  (260) 
1 2 3 1 0 7 0 8 1 0 2

>  <source_rank_in_scored_call>  (260) 
62

>  <source_current_task>  (260) 
no_task

>  <scenario>  (260) 
1 2 3 1 0 7 0 8 1 0

>  <protected_ring_attachments>  (260) 
3,1,0,2|1,0,2;4,5,0,2|5,0,2;9,8,7,2|8,7,2;11,12,7,2|12,7,2

>  <current_task>  (260) 
no_task

>  <rotatable_bond_torsions>  (260) 
1,0,2,7;0,2,7,8

$$$$

     RDKit          3D

 14 15  0  0  0  0  0  0  0  0999 V2000
  -27.7630   -6.9850  -30.6310 C   0  0  0  0  0  0  0  0  0  0  0  0
  -27.6740   -7.1190  -31.9850 N   0  0  0  0  0  0  0  0  0  0  0  0
  -27.3660   -8.1180  -29.7270 N   0  0  0  0  0  0  0  0  0  0  0  0
  -28.0530   -5.9590  -32.5530 C   0  0  0  0  0  0  0  0  0  0  0  0
  -28.3720   -5.1140  -31.5350 N   0  0  0  0  0  0  0  0  0  0  0  0
  -28.1980   -5.7340  -30.3820 N   0  0  0  0  0  0  0  0  0  0  0  0
  -28.1460   -5.2860  -28.9660 C   0  0  0  0  0  0  0  0  0  0  0  0
  -28.4330   -9.0520  -29.3180 C   0  0  1  0  0  0  0  0  0  0  0  0
  -27.5460  -10.2790  -29.1890 C   0  0  0  0  0  0  0  0  0  0  0  0
  -28.2310  -11.4370  -29.5480 O   0  0  0  0  0  0  0  0  0  0  0  0
  -29.3490  -11.6630  -28.7550 C   0  0  0  0  0  0  0  0  0  0  0  0
  -30.3240  -10.4950  -28.8650 C   0  0  0  0  0  0  0  0  0  0  0  0
  -29.6190   -9.2270  -28.3970 C   0  0  0  0  0  0  0  0  0  0  0  0
  -29.5670   -5.3400  -28.3870 C   0  0  0  0  0  0  0  0  0  0  0  0
  1  2  2  0
  1  6  1  0
  1  3  1  0
  2  4  1  0
  8  3  1  1
  4  5  2  0
  5  6  1  0
  6  7  1  0
  8  9  1  0
  8 13  1  0
  9 10  1  0
 10 11  1  0
 11 12  1  0
 12 13  1  0
  7 14  1  0
M  END
>  <name>  (261) 
Car Nac Nd0 Car Nac Nac Cs3 C3r C3r O_a C3r C3r C3r Cs3

>  <indices>  (261) 
[0, 1, 2]

>  <tasks>  (261) 
probe_placing close_aromatic_ring close_aromatic_ring close_aromatic_ring ring_built build_to_Nac build_to_Nd0 close_aliphatic_ring close_aliphatic_ring close_aliphatic_ring close_aliphatic_ring close_aliphatic_ring

>  <prot_clashes>  (261) 
12

>  <NBS phar>  (261) 
0.12

>  <NBS_non-phar>  (261) 
0.4551750251225063

>  <NBS>  (261) 
0.5751750251225063

>  <source_stage>  (261) 
scored

>  <source_iter>  (261) 
11

>  <source_parent_mol>  (261) 
2

>  <source_scenario>  (261) 
1 2 3 1 0 7 0 8 1 0 2

>  <source_rank_in_scored_call>  (261) 
67

>  <source_current_task>  (261) 
no_task

>  <scenario>  (261) 
1 2 3 1 0 7 0 8 1 0

>  <protected_ring_attachments>  (261) 
3,1,0,2|1,0,2;4,5,0,2|5,0,2;9,8,7,2|8,7,2;11,12,7,2|12,7,2

>  <current_task>  (261) 
no_task

>  <rotatable_bond_torsions>  (261) 
1,0,2,7;0,2,7,8

$$$$

     RDKit          3D

 14 15  0  0  0  0  0  0  0  0999 V2000
  -27.7660   -6.9820  -30.5960 C   0  0  0  0  0  0  0  0  0  0  0  0
  -27.6790   -7.1220  -31.9500 N   0  0  0  0  0  0  0  0  0  0  0  0
  -27.3600   -8.1080  -29.6880 N   0  0  0  0  0  0  0  0  0  0  0  0
  -28.0660   -5.9680  -32.5230 C   0  0  0  0  0  0  0  0  0  0  0  0
  -28.3900   -5.1210  -31.5090 N   0  0  0  0  0  0  0  0  0  0  0  0
  -28.2100   -5.7330  -30.3530 N   0  0  0  0  0  0  0  0  0  0  0  0
  -28.1580   -5.2780  -28.9390 C   0  0  0  0  0  0  0  0  0  0  0  0
  -28.4200   -9.0480  -29.2730 C   0  0  1  0  0  0  0  0  0  0  0  0
  -27.5250  -10.2680  -29.1390 C   0  0  0  0  0  0  0  0  0  0  0  0
  -28.2020  -11.4330  -29.4920 O   0  0  0  0  0  0  0  0  0  0  0  0
  -29.3170  -11.6620  -28.6950 C   0  0  0  0  0  0  0  0  0  0  0  0
  -30.3000  -10.5010  -28.8100 C   0  0  0  0  0  0  0  0  0  0  0  0
  -29.6030   -9.2270  -28.3490 C   0  0  0  0  0  0  0  0  0  0  0  0
  -29.5600   -5.2840  -28.3900 C   0  0  0  0  0  0  0  0  0  0  0  0
  1  2  2  0
  1  6  1  0
  1  3  1  0
  2  4  1  0
  8  3  1  1
  4  5  2  0
  5  6  1  0
  6  7  1  0
  8  9  1  0
  8 13  1  0
  9 10  1  0
 10 11  1  0
 11 12  1  0
 12 13  1  0
  7 14  1  0
M  END
>  <name>  (262) 
Car Nac Nd0 Car Nac Nac Cs3 C3r C3r O_a C3r C3r C3r Cs3

>  <indices>  (262) 
[0, 1, 2]

>  <tasks>  (262) 
probe_placing close_aromatic_ring close_aromatic_ring close_aromatic_ring ring_built build_to_Nac build_to_Nd0 close_aliphatic_ring close_aliphatic_ring close_aliphatic_ring close_aliphatic_ring close_aliphatic_ring

>  <prot_clashes>  (262) 
10

>  <NBS phar>  (262) 
0.12

>  <NBS_non-phar>  (262) 
0.4535610335213797

>  <NBS>  (262) 
0.5735610335213797

>  <source_stage>  (262) 
scored

>  <source_iter>  (262) 
11

>  <source_parent_mol>  (262) 
2

>  <source_scenario>  (262) 
1 2 3 1 0 7 0 8 1 0 2

>  <source_rank_in_scored_call>  (262) 
68

>  <source_current_task>  (262) 
no_task

>  <scenario>  (262) 
1 2 3 1 0 7 0 8 1 0

>  <protected_ring_attachments>  (262) 
3,1,0,2|1,0,2;4,5,0,2|5,0,2;9,8,7,2|8,7,2;11,12,7,2|12,7,2

>  <current_task>  (262) 
no_task

>  <rotatable_bond_torsions>  (262) 
1,0,2,7;0,2,7,8

$$$$

     RDKit          3D

 14 15  0  0  0  0  0  0  0  0999 V2000
  -27.9490   -6.9980  -30.4050 C   0  0  0  0  0  0  0  0  0  0  0  0
  -27.3010   -7.2700  -31.5740 N   0  0  0  0  0  0  0  0  0  0  0  0
  -27.6830   -7.8240  -29.1780 N   0  0  0  0  0  0  0  0  0  0  0  0
  -27.6910   -6.3710  -32.4960 C   0  0  0  0  0  0  0  0  0  0  0  0
  -28.5810   -5.5450  -31.8810 N   0  0  0  0  0  0  0  0  0  0  0  0
  -28.7350   -5.9260  -30.6260 N   0  0  0  0  0  0  0  0  0  0  0  0
  -29.3590   -5.3070  -29.4270 C   0  0  0  0  0  0  0  0  0  0  0  0
  -28.5650   -8.9850  -28.9500 C   0  0  1  0  0  0  0  0  0  0  0  0
  -27.5350   -9.8440  -28.2370 C   0  0  0  0  0  0  0  0  0  0  0  0
  -27.7200  -11.1950  -28.5220 O   0  0  0  0  0  0  0  0  0  0  0  0
  -28.9700  -11.6560  -28.1300 C   0  0  0  0  0  0  0  0  0  0  0  0
  -30.0710  -10.8770  -28.8420 C   0  0  0  0  0  0  0  0  0  0  0  0
  -29.9380   -9.4040  -28.4770 C   0  0  0  0  0  0  0  0  0  0  0  0
  -28.6050   -4.1780  -28.6710 C   0  0  0  0  0  0  0  0  0  0  0  0
  1  2  2  0
  1  6  1  0
  1  3  1  0
  2  4  1  0
  8  3  1  1
  4  5  2  0
  5  6  1  0
  6  7  1  0
  8 13  1  0
  8  9  1  0
  9 10  1  0
 10 11  1  0
 11 12  1  0
 12 13  1  0
  7 14  1  0
M  END
>  <name>  (263) 
Car Nac Nd0 Car Nac Nac Cs3 C3r C3r O_a C3r C3r C3r Cs3

>  <indices>  (263) 
[0, 1, 2]

>  <tasks>  (263) 
probe_placing close_aromatic_ring close_aromatic_ring close_aromatic_ring ring_built build_to_Nac build_to_Nd0 close_aliphatic_ring close_aliphatic_ring close_aliphatic_ring close_aliphatic_ring close_aliphatic_ring

>  <prot_clashes>  (263) 
5

>  <NBS phar>  (263) 
0.06000000000000001

>  <NBS_non-phar>  (263) 
0.5075734683445522

>  <NBS>  (263) 
0.5675734683445522

>  <source_stage>  (263) 
scored

>  <source_iter>  (263) 
11

>  <source_parent_mol>  (263) 
2

>  <source_scenario>  (263) 
1 2 3 1 0 7 0 8 1 0 2

>  <source_rank_in_scored_call>  (263) 
71

>  <source_current_task>  (263) 
no_task

>  <scenario>  (263) 
1 2 3 1 0 7 0 8 1 0

>  <protected_ring_attachments>  (263) 
3,1,0,2|1,0,2;4,5,0,2|5,0,2;9,8,7,2|8,7,2;11,12,7,2|12,7,2

>  <current_task>  (263) 
no_task

>  <rotatable_bond_torsions>  (263) 
1,0,2,7;0,2,7,8

$$$$

     RDKit          3D

 14 15  0  0  0  0  0  0  0  0999 V2000
  -27.9730   -7.0830  -30.5480 C   0  0  0  0  0  0  0  0  0  0  0  0
  -27.6470   -7.1320  -31.8710 N   0  0  0  0  0  0  0  0  0  0  0  0
  -27.6210   -8.2240  -29.6360 N   0  0  0  0  0  0  0  0  0  0  0  0
  -28.0410   -5.9820  -32.4490 C   0  0  0  0  0  0  0  0  0  0  0  0
  -28.6100   -5.2300  -31.4680 N   0  0  0  0  0  0  0  0  0  0  0  0
  -28.5690   -5.8950  -30.3280 N   0  0  0  0  0  0  0  0  0  0  0  0
  -28.8000   -5.5250  -28.9070 C   0  0  0  0  0  0  0  0  0  0  0  0
  -28.6400   -9.2760  -29.4550 C   0  0  1  0  0  0  0  0  0  0  0  0
  -27.6680  -10.4200  -29.2240 C   0  0  0  0  0  0  0  0  0  0  0  0
  -28.1610  -11.6140  -29.7420 O   0  0  0  0  0  0  0  0  0  0  0  0
  -29.3670  -11.9880  -29.1620 C   0  0  0  0  0  0  0  0  0  0  0  0
  -30.4240  -10.9120  -29.3910 C   0  0  0  0  0  0  0  0  0  0  0  0
  -29.9390   -9.6130  -28.7590 C   0  0  0  0  0  0  0  0  0  0  0  0
  -28.9560   -4.0170  -28.6940 C   0  0  0  0  0  0  0  0  0  0  0  0
  1  2  2  0
  1  6  1  0
  1  3  1  0
  2  4  1  0
  8  3  1  1
  4  5  2  0
  5  6  1  0
  6  7  1  0
  8  9  1  0
  8 13  1  0
  9 10  1  0
 10 11  1  0
 11 12  1  0
 12 13  1  0
  7 14  1  0
M  END
>  <name>  (264) 
Car Nac Nd0 Car Nac Nac Cs3 C3r C3r O_a C3r C3r C3r Cs3

>  <indices>  (264) 
[0, 1, 2]

>  <tasks>  (264) 
probe_placing close_aromatic_ring close_aromatic_ring close_aromatic_ring ring_built build_to_Nac build_to_Nd0 close_aliphatic_ring close_aliphatic_ring close_aliphatic_ring close_aliphatic_ring close_aliphatic_ring

>  <prot_clashes>  (264) 
9

>  <NBS phar>  (264) 
0.12

>  <NBS_non-phar>  (264) 
0.44353716714041574

>  <NBS>  (264) 
0.5635371671404157

>  <source_stage>  (264) 
scored

>  <source_iter>  (264) 
11

>  <source_parent_mol>  (264) 
2

>  <source_scenario>  (264) 
1 2 3 1 0 7 0 8 1 0 2

>  <source_rank_in_scored_call>  (264) 
72

>  <source_current_task>  (264) 
no_task

>  <scenario>  (264) 
1 2 3 1 0 7 0 8 1 0

>  <protected_ring_attachments>  (264) 
3,1,0,2|1,0,2;4,5,0,2|5,0,2;9,8,7,2|8,7,2;11,12,7,2|12,7,2

>  <current_task>  (264) 
no_task

>  <rotatable_bond_torsions>  (264) 
1,0,2,7;0,2,7,8

$$$$

     RDKit          3D

 14 15  0  0  0  0  0  0  0  0999 V2000
  -27.9860   -7.0640  -30.2880 C   0  0  0  0  0  0  0  0  0  0  0  0
  -27.2930   -7.3040  -31.4380 N   0  0  0  0  0  0  0  0  0  0  0  0
  -27.7260   -7.8870  -29.0580 N   0  0  0  0  0  0  0  0  0  0  0  0
  -27.6880   -6.4150  -32.3670 C   0  0  0  0  0  0  0  0  0  0  0  0
  -28.6280   -5.6280  -31.7760 N   0  0  0  0  0  0  0  0  0  0  0  0
  -28.8060   -6.0220  -30.5280 N   0  0  0  0  0  0  0  0  0  0  0  0
  -29.4890   -5.4340  -29.3460 C   0  0  0  0  0  0  0  0  0  0  0  0
  -28.5690   -9.0820  -28.8620 C   0  0  1  0  0  0  0  0  0  0  0  0
  -27.5280   -9.9050  -28.1220 C   0  0  0  0  0  0  0  0  0  0  0  0
  -27.6520  -11.2600  -28.4180 O   0  0  0  0  0  0  0  0  0  0  0  0
  -28.8950  -11.7720  -28.0670 C   0  0  0  0  0  0  0  0  0  0  0  0
  -30.0030  -11.0320  -28.8090 C   0  0  0  0  0  0  0  0  0  0  0  0
  -29.9380   -9.5560  -28.4340 C   0  0  0  0  0  0  0  0  0  0  0  0
  -28.5780   -4.4410  -28.6570 C   0  0  0  0  0  0  0  0  0  0  0  0
  1  2  2  0
  1  6  1  0
  1  3  1  0
  2  4  1  0
  8  3  1  1
  4  5  2  0
  5  6  1  0
  6  7  1  0
  8 13  1  0
  8  9  1  0
  9 10  1  0
 10 11  1  0
 11 12  1  0
 12 13  1  0
  7 14  1  0
M  END
>  <name>  (265) 
Car Nac Nd0 Car Nac Nac Cs3 C3r C3r O_a C3r C3r C3r Cs3

>  <indices>  (265) 
[0, 1, 2]

>  <tasks>  (265) 
probe_placing close_aromatic_ring close_aromatic_ring close_aromatic_ring ring_built build_to_Nac build_to_Nd0 close_aliphatic_ring close_aliphatic_ring close_aliphatic_ring close_aliphatic_ring close_aliphatic_ring

>  <prot_clashes>  (265) 
7

>  <NBS phar>  (265) 
0.04

>  <NBS_non-phar>  (265) 
0.5213849203927177

>  <NBS>  (265) 
0.5613849203927177

>  <source_stage>  (265) 
scored

>  <source_iter>  (265) 
11

>  <source_parent_mol>  (265) 
2

>  <source_scenario>  (265) 
1 2 3 1 0 7 0 8 1 0 2

>  <source_rank_in_scored_call>  (265) 
74

>  <source_current_task>  (265) 
no_task

>  <scenario>  (265) 
1 2 3 1 0 7 0 8 1 0

>  <protected_ring_attachments>  (265) 
3,1,0,2|1,0,2;4,5,0,2|5,0,2;9,8,7,2|8,7,2;11,12,7,2|12,7,2

>  <current_task>  (265) 
no_task

>  <rotatable_bond_torsions>  (265) 
1,0,2,7;0,2,7,8

$$$$

     RDKit          3D

 14 15  0  0  0  0  0  0  0  0999 V2000
  -27.9360   -7.1500  -30.6070 C   0  0  0  0  0  0  0  0  0  0  0  0
  -27.7070   -7.1710  -31.9510 N   0  0  0  0  0  0  0  0  0  0  0  0
  -27.5970   -8.3430  -29.7590 N   0  0  0  0  0  0  0  0  0  0  0  0
  -28.0630   -5.9780  -32.4620 C   0  0  0  0  0  0  0  0  0  0  0  0
  -28.5120   -5.2280  -31.4190 N   0  0  0  0  0  0  0  0  0  0  0  0
  -28.4360   -5.9350  -30.3070 N   0  0  0  0  0  0  0  0  0  0  0  0
  -28.5430   -5.6030  -28.8620 C   0  0  0  0  0  0  0  0  0  0  0  0
  -28.6680   -9.3340  -29.5380 C   0  0  1  0  0  0  0  0  0  0  0  0
  -27.7590  -10.5450  -29.4150 C   0  0  0  0  0  0  0  0  0  0  0  0
  -28.3650  -11.6860  -29.9330 O   0  0  0  0  0  0  0  0  0  0  0  0
  -29.5500  -12.0030  -29.2810 C   0  0  0  0  0  0  0  0  0  0  0  0
  -30.5460  -10.8550  -29.3990 C   0  0  0  0  0  0  0  0  0  0  0  0
  -29.9350   -9.6130  -28.7620 C   0  0  0  0  0  0  0  0  0  0  0  0
  -29.5390   -4.4920  -28.6050 C   0  0  0  0  0  0  0  0  0  0  0  0
  1  2  2  0
  1  6  1  0
  1  3  1  0
  2  4  1  0
  8  3  1  1
  4  5  2  0
  5  6  1  0
  6  7  1  0
  8  9  1  0
  8 13  1  0
  9 10  1  0
 10 11  1  0
 11 12  1  0
 12 13  1  0
  7 14  1  0
M  END
>  <name>  (266) 
Car Nac Nd0 Car Nac Nac Cs3 C3r C3r O_a C3r C3r C3r Cs3

>  <indices>  (266) 
[0, 1, 2]

>  <tasks>  (266) 
probe_placing close_aromatic_ring close_aromatic_ring close_aromatic_ring ring_built build_to_Nac build_to_Nd0 close_aliphatic_ring close_aliphatic_ring close_aliphatic_ring close_aliphatic_ring close_aliphatic_ring

>  <prot_clashes>  (266) 
10

>  <NBS phar>  (266) 
0.12

>  <NBS_non-phar>  (266) 
0.4168316296168736

>  <NBS>  (266) 
0.5368316296168736

>  <source_stage>  (266) 
scored

>  <source_iter>  (266) 
11

>  <source_parent_mol>  (266) 
2

>  <source_scenario>  (266) 
1 2 3 1 0 7 0 8 1 0 2

>  <source_rank_in_scored_call>  (266) 
82

>  <source_current_task>  (266) 
no_task

>  <scenario>  (266) 
1 2 3 1 0 7 0 8 1 0

>  <protected_ring_attachments>  (266) 
3,1,0,2|1,0,2;4,5,0,2|5,0,2;9,8,7,2|8,7,2;11,12,7,2|12,7,2

>  <current_task>  (266) 
no_task

>  <rotatable_bond_torsions>  (266) 
1,0,2,7;0,2,7,8

$$$$

     RDKit          3D

 14 15  0  0  0  0  0  0  0  0999 V2000
  -27.9820   -7.4290  -30.8400 C   0  0  0  0  0  0  0  0  0  0  0  0
  -28.0030   -7.3090  -32.1980 N   0  0  0  0  0  0  0  0  0  0  0  0
  -27.6490   -8.7470  -30.1980 N   0  0  0  0  0  0  0  0  0  0  0  0
  -28.2920   -6.0320  -32.5080 C   0  0  0  0  0  0  0  0  0  0  0  0
  -28.4460   -5.3720  -31.3280 N   0  0  0  0  0  0  0  0  0  0  0  0
  -28.2600   -6.2140  -30.3280 N   0  0  0  0  0  0  0  0  0  0  0  0
  -28.0620   -6.0520  -28.8640 C   0  0  0  0  0  0  0  0  0  0  0  0
  -28.7810   -9.6370  -29.8740 C   0  0  1  0  0  0  0  0  0  0  0  0
  -28.0260  -10.9440  -30.0510 C   0  0  0  0  0  0  0  0  0  0  0  0
  -28.8550  -11.9430  -30.5540 O   0  0  0  0  0  0  0  0  0  0  0  0
  -29.9330  -12.2100  -29.7200 C   0  0  0  0  0  0  0  0  0  0  0  0
  -30.7810  -10.9570  -29.5270 C   0  0  0  0  0  0  0  0  0  0  0  0
  -29.9110   -9.8740  -28.9000 C   0  0  0  0  0  0  0  0  0  0  0  0
  -27.7010   -7.2750  -28.0180 C   0  0  0  0  0  0  0  0  0  0  0  0
  1  2  2  0
  1  6  1  0
  1  3  1  0
  2  4  1  0
  8  3  1  1
  4  5  2  0
  5  6  1  0
  6  7  1  0
  8  9  1  0
  8 13  1  0
  9 10  1  0
 10 11  1  0
 11 12  1  0
 12 13  1  0
  7 14  1  0
M  END
>  <name>  (267) 
Car Nac Nd0 Car Nac Nac Cs3 C3r C3r O_a C3r C3r C3r Cs3

>  <indices>  (267) 
[0, 1, 2]

>  <tasks>  (267) 
probe_placing close_aromatic_ring close_aromatic_ring close_aromatic_ring ring_built build_to_Nac build_to_Nd0 close_aliphatic_ring close_aliphatic_ring close_aliphatic_ring close_aliphatic_ring close_aliphatic_ring

>  <prot_clashes>  (267) 
10

>  <NBS phar>  (267) 
0.04

>  <NBS_non-phar>  (267) 
0.4481197084699358

>  <NBS>  (267) 
0.4881197084699358

>  <source_stage>  (267) 
scored

>  <source_iter>  (267) 
11

>  <source_parent_mol>  (267) 
2

>  <source_scenario>  (267) 
1 2 3 1 0 7 0 8 1 0 2

>  <source_rank_in_scored_call>  (267) 
98

>  <source_current_task>  (267) 
no_task

>  <scenario>  (267) 
1 2 3 1 0 7 0 8 1 0

>  <protected_ring_attachments>  (267) 
3,1,0,2|1,0,2;4,5,0,2|5,0,2;9,8,7,2|8,7,2;11,12,7,2|12,7,2

>  <current_task>  (267) 
no_task

>  <rotatable_bond_torsions>  (267) 
1,0,2,7;0,2,7,8

$$$$

     RDKit          3D

 13 14  0  0  0  0  0  0  0  0999 V2000
  -27.9800   -6.5240  -30.3540 C   0  0  0  0  0  0  0  0  0  0  0  0
  -27.2760   -7.0460  -31.3990 N   0  0  0  0  0  0  0  0  0  0  0  0
  -27.7090   -6.9830  -28.9490 N   0  0  0  0  0  0  0  0  0  0  0  0
  -27.6840   -6.4440  -32.5300 C   0  0  0  0  0  0  0  0  0  0  0  0
  -28.6420   -5.5470  -32.1690 N   0  0  0  0  0  0  0  0  0  0  0  0
  -28.8170   -5.5980  -30.8610 N   0  0  0  0  0  0  0  0  0  0  0  0
  -29.5180   -4.7320  -29.8760 C   0  0  0  0  0  0  0  0  0  0  0  0
  -28.6970   -8.0420  -28.0790 C   0  0  2  0  0  0  0  0  0  0  0  0
  -27.4190   -8.6940  -27.5860 C   0  0  0  0  0  0  0  0  0  0  0  0
  -27.7330  -10.0090  -27.2530 O   0  0  0  0  0  0  0  0  0  0  0  0
  -29.0020  -10.3260  -27.7630 C   0  0  0  0  0  0  0  0  0  0  0  0
  -29.3990   -9.2250  -28.7190 C   0  0  0  0  0  0  0  0  0  0  0  0
  -29.3660   -5.0230  -28.3810 C   0  0  0  0  0  0  0  0  0  0  0  0
  1  2  2  0
  1  6  1  0
  1  3  1  0
  2  4  1  0
  8  3  1  6
  4  5  2  0
  5  6  1  0
  6  7  1  0
  8 12  1  0
  8  9  1  0
  9 10  1  0
 10 11  1  0
 11 12  1  0
  7 13  1  0
M  END
>  <name>  (268) 
Car Nac Nd0 Car Nac Nac Cs3 C3r C3r O_a C3r C3r Cs3

>  <indices>  (268) 
[0, 1, 2]

>  <tasks>  (268) 
probe_placing close_aromatic_ring close_aromatic_ring close_aromatic_ring ring_built build_to_Nac build_to_Nd0 close_aliphatic_ring close_aliphatic_ring close_aliphatic_ring close_aliphatic_ring

>  <prot_clashes>  (268) 
5

>  <NBS phar>  (268) 
0.26

>  <NBS_non-phar>  (268) 
0.4993188197796161

>  <NBS>  (268) 
0.7593188197796161

>  <source_stage>  (268) 
scored

>  <source_iter>  (268) 
10

>  <source_parent_mol>  (268) 
3

>  <source_scenario>  (268) 
1 2 3 1 0 7 0 8 1 3

>  <source_rank_in_scored_call>  (268) 
3

>  <source_current_task>  (268) 
no_task

>  <scenario>  (268) 
1 2 3 1 0 7 0 8 1

>  <protected_ring_attachments>  (268) 
3,1,0,2|1,0,2;4,5,0,2|5,0,2;9,8,7,2|8,7,2;10,11,7,2|11,7,2

>  <current_task>  (268) 
no_task

>  <rotatable_bond_torsions>  (268) 
1,0,2,7;0,2,7,8

$$$$

     RDKit          3D

 13 14  0  0  0  0  0  0  0  0999 V2000
  -27.9360   -6.5770  -30.3200 C   0  0  0  0  0  0  0  0  0  0  0  0
  -27.2700   -7.1230  -31.3770 N   0  0  0  0  0  0  0  0  0  0  0  0
  -27.6430   -7.0320  -28.9180 N   0  0  0  0  0  0  0  0  0  0  0  0
  -27.6920   -6.5210  -32.5030 C   0  0  0  0  0  0  0  0  0  0  0  0
  -28.6200   -5.5990  -32.1270 N   0  0  0  0  0  0  0  0  0  0  0  0
  -28.7650   -5.6360  -30.8140 N   0  0  0  0  0  0  0  0  0  0  0  0
  -29.4210   -4.7460  -29.8200 C   0  0  0  0  0  0  0  0  0  0  0  0
  -28.6340   -8.0600  -28.0150 C   0  0  2  0  0  0  0  0  0  0  0  0
  -27.3590   -8.7380  -27.5480 C   0  0  0  0  0  0  0  0  0  0  0  0
  -27.6960  -10.0430  -27.1970 O   0  0  0  0  0  0  0  0  0  0  0  0
  -28.9840  -10.3330  -27.6740 C   0  0  0  0  0  0  0  0  0  0  0  0
  -29.3780   -9.2310  -28.6290 C   0  0  0  0  0  0  0  0  0  0  0  0
  -29.4120   -5.1260  -28.3830 C   0  0  0  0  0  0  0  0  0  0  0  0
  1  2  2  0
  1  6  1  0
  1  3  1  0
  2  4  1  0
  8  3  1  6
  4  5  2  0
  5  6  1  0
  6  7  1  0
  8 12  1  0
  8  9  1  0
  9 10  1  0
 10 11  1  0
 11 12  1  0
  7 13  1  0
M  END
>  <name>  (269) 
Car Nac Nd0 Car Nac Nac Cs3 C3r C3r O_a C3r C3r Cs3

>  <indices>  (269) 
[0, 1, 2]

>  <tasks>  (269) 
probe_placing close_aromatic_ring close_aromatic_ring close_aromatic_ring ring_built build_to_Nac build_to_Nd0 close_aliphatic_ring close_aliphatic_ring close_aliphatic_ring close_aliphatic_ring

>  <prot_clashes>  (269) 
6

>  <NBS phar>  (269) 
0.24000000000000005

>  <NBS_non-phar>  (269) 
0.5128182264474722

>  <NBS>  (269) 
0.7528182264474723

>  <source_stage>  (269) 
scored

>  <source_iter>  (269) 
10

>  <source_parent_mol>  (269) 
3

>  <source_scenario>  (269) 
1 2 3 1 0 7 0 8 1 3

>  <source_rank_in_scored_call>  (269) 
5

>  <source_current_task>  (269) 
no_task

>  <scenario>  (269) 
1 2 3 1 0 7 0 8 1

>  <protected_ring_attachments>  (269) 
3,1,0,2|1,0,2;4,5,0,2|5,0,2;9,8,7,2|8,7,2;10,11,7,2|11,7,2

>  <current_task>  (269) 
no_task

>  <rotatable_bond_torsions>  (269) 
1,0,2,7;0,2,7,8

$$$$

     RDKit          3D

 13 14  0  0  0  0  0  0  0  0999 V2000
  -27.7010   -7.0320  -30.3940 C   0  0  0  0  0  0  0  0  0  0  0  0
  -27.5980   -7.4550  -31.6870 N   0  0  0  0  0  0  0  0  0  0  0  0
  -27.2550   -7.9180  -29.2650 N   0  0  0  0  0  0  0  0  0  0  0  0
  -28.0280   -6.4680  -32.4930 C   0  0  0  0  0  0  0  0  0  0  0  0
  -28.3930   -5.4360  -31.6840 N   0  0  0  0  0  0  0  0  0  0  0  0
  -28.1960   -5.7790  -30.4230 N   0  0  0  0  0  0  0  0  0  0  0  0
  -28.1740   -5.0300  -29.1390 C   0  0  0  0  0  0  0  0  0  0  0  0
  -28.2970   -8.7800  -28.2520 C   0  0  2  0  0  0  0  0  0  0  0  0
  -27.3120   -9.9290  -28.3580 C   0  0  0  0  0  0  0  0  0  0  0  0
  -28.0260  -11.1010  -28.1230 O   0  0  0  0  0  0  0  0  0  0  0  0
  -29.4010  -10.8240  -28.1720 C   0  0  0  0  0  0  0  0  0  0  0  0
  -29.5690   -9.4390  -28.7510 C   0  0  0  0  0  0  0  0  0  0  0  0
  -29.5940   -5.0230  -28.5570 C   0  0  0  0  0  0  0  0  0  0  0  0
  1  2  2  0
  1  6  1  0
  1  3  1  0
  2  4  1  0
  8  3  1  6
  4  5  2  0
  5  6  1  0
  6  7  1  0
  8 12  1  0
  8  9  1  0
  9 10  1  0
 10 11  1  0
 11 12  1  0
  7 13  1  0
M  END
>  <name>  (270) 
Car Nac Nd0 Car Nac Nac Cs3 C3r C3r O_a C3r C3r Cs3

>  <indices>  (270) 
[0, 1, 2]

>  <tasks>  (270) 
probe_placing close_aromatic_ring close_aromatic_ring close_aromatic_ring ring_built build_to_Nac build_to_Nd0 close_aliphatic_ring close_aliphatic_ring close_aliphatic_ring close_aliphatic_ring

>  <prot_clashes>  (270) 
8

>  <NBS phar>  (270) 
0.0

>  <NBS_non-phar>  (270) 
0.47321943136361927

>  <NBS>  (270) 
0.47321943136361927

>  <source_stage>  (270) 
scored

>  <source_iter>  (270) 
10

>  <source_parent_mol>  (270) 
3

>  <source_scenario>  (270) 
1 2 3 1 0 7 0 8 1 3

>  <source_rank_in_scored_call>  (270) 
27

>  <source_current_task>  (270) 
no_task

>  <scenario>  (270) 
1 2 3 1 0 7 0 8 1

>  <protected_ring_attachments>  (270) 
3,1,0,2|1,0,2;4,5,0,2|5,0,2;9,8,7,2|8,7,2;10,11,7,2|11,7,2

>  <current_task>  (270) 
no_task

>  <rotatable_bond_torsions>  (270) 
1,0,2,7;0,2,7,8

$$$$

     RDKit          3D

 13 14  0  0  0  0  0  0  0  0999 V2000
  -27.7290   -6.9130  -30.3670 C   0  0  0  0  0  0  0  0  0  0  0  0
  -27.5810   -7.4420  -31.6150 N   0  0  0  0  0  0  0  0  0  0  0  0
  -27.2840   -7.6840  -29.1560 N   0  0  0  0  0  0  0  0  0  0  0  0
  -28.0220   -6.5440  -32.5130 C   0  0  0  0  0  0  0  0  0  0  0  0
  -28.4400   -5.4590  -31.8050 N   0  0  0  0  0  0  0  0  0  0  0  0
  -28.2630   -5.6850  -30.5160 N   0  0  0  0  0  0  0  0  0  0  0  0
  -28.2960   -4.8280  -29.3010 C   0  0  0  0  0  0  0  0  0  0  0  0
  -28.3220   -8.4900  -28.0950 C   0  0  2  0  0  0  0  0  0  0  0  0
  -27.2990   -9.6100  -28.0800 C   0  0  0  0  0  0  0  0  0  0  0  0
  -27.9800  -10.7820  -27.7590 O   0  0  0  0  0  0  0  0  0  0  0  0
  -29.3620  -10.5570  -27.8630 C   0  0  0  0  0  0  0  0  0  0  0  0
  -29.5590   -9.2330  -28.5630 C   0  0  0  0  0  0  0  0  0  0  0  0
  -29.6140   -5.1080  -28.6190 C   0  0  0  0  0  0  0  0  0  0  0  0
  1  2  2  0
  1  6  1  0
  1  3  1  0
  2  4  1  0
  8  3  1  6
  4  5  2  0
  5  6  1  0
  6  7  1  0
  8 12  1  0
  8  9  1  0
  9 10  1  0
 10 11  1  0
 11 12  1  0
  7 13  1  0
M  END
>  <name>  (271) 
Car Nac Nd0 Car Nac Nac Cs3 C3r C3r O_a C3r C3r Cs3

>  <indices>  (271) 
[0, 1, 2]

>  <tasks>  (271) 
probe_placing close_aromatic_ring close_aromatic_ring close_aromatic_ring ring_built build_to_Nac build_to_Nd0 close_aliphatic_ring close_aliphatic_ring close_aliphatic_ring close_aliphatic_ring

>  <prot_clashes>  (271) 
7

>  <NBS phar>  (271) 
0.0

>  <NBS_non-phar>  (271) 
0.4647355079650879

>  <NBS>  (271) 
0.4647355079650879

>  <source_stage>  (271) 
scored

>  <source_iter>  (271) 
10

>  <source_parent_mol>  (271) 
3

>  <source_scenario>  (271) 
1 2 3 1 0 7 0 8 1 3

>  <source_rank_in_scored_call>  (271) 
29

>  <source_current_task>  (271) 
no_task

>  <scenario>  (271) 
1 2 3 1 0 7 0 8 1

>  <protected_ring_attachments>  (271) 
3,1,0,2|1,0,2;4,5,0,2|5,0,2;9,8,7,2|8,7,2;10,11,7,2|11,7,2

>  <current_task>  (271) 
no_task

>  <rotatable_bond_torsions>  (271) 
1,0,2,7;0,2,7,8

$$$$

     RDKit          3D

 13 14  0  0  0  0  0  0  0  0999 V2000
  -27.7280   -7.0190  -30.3370 C   0  0  0  0  0  0  0  0  0  0  0  0
  -27.6240   -7.4810  -31.6160 N   0  0  0  0  0  0  0  0  0  0  0  0
  -27.2740   -7.8670  -29.1820 N   0  0  0  0  0  0  0  0  0  0  0  0
  -28.0620   -6.5230  -32.4510 C   0  0  0  0  0  0  0  0  0  0  0  0
  -28.4340   -5.4690  -31.6740 N   0  0  0  0  0  0  0  0  0  0  0  0
  -28.2320   -5.7720  -30.4040 N   0  0  0  0  0  0  0  0  0  0  0  0
  -28.2140   -4.9830  -29.1430 C   0  0  0  0  0  0  0  0  0  0  0  0
  -28.3090   -8.7050  -28.1410 C   0  0  2  0  0  0  0  0  0  0  0  0
  -27.3150   -9.8490  -28.2140 C   0  0  0  0  0  0  0  0  0  0  0  0
  -28.0200  -11.0190  -27.9410 O   0  0  0  0  0  0  0  0  0  0  0  0
  -29.3970  -10.7540  -27.9970 C   0  0  0  0  0  0  0  0  0  0  0  0
  -29.5760   -9.3890  -28.6180 C   0  0  0  0  0  0  0  0  0  0  0  0
  -29.6180   -4.9240  -28.6030 C   0  0  0  0  0  0  0  0  0  0  0  0
  1  2  2  0
  1  6  1  0
  1  3  1  0
  2  4  1  0
  8  3  1  6
  4  5  2  0
  5  6  1  0
  6  7  1  0
  8 12  1  0
  8  9  1  0
  9 10  1  0
 10 11  1  0
 11 12  1  0
  7 13  1  0
M  END
>  <name>  (272) 
Car Nac Nd0 Car Nac Nac Cs3 C3r C3r O_a C3r C3r Cs3

>  <indices>  (272) 
[0, 1, 2]

>  <tasks>  (272) 
probe_placing close_aromatic_ring close_aromatic_ring close_aromatic_ring ring_built build_to_Nac build_to_Nd0 close_aliphatic_ring close_aliphatic_ring close_aliphatic_ring close_aliphatic_ring

>  <prot_clashes>  (272) 
7

>  <NBS phar>  (272) 
0.0

>  <NBS_non-phar>  (272) 
0.4540514579186073

>  <NBS>  (272) 
0.4540514579186073

>  <source_stage>  (272) 
scored

>  <source_iter>  (272) 
10

>  <source_parent_mol>  (272) 
3

>  <source_scenario>  (272) 
1 2 3 1 0 7 0 8 1 3

>  <source_rank_in_scored_call>  (272) 
30

>  <source_current_task>  (272) 
no_task

>  <scenario>  (272) 
1 2 3 1 0 7 0 8 1

>  <protected_ring_attachments>  (272) 
3,1,0,2|1,0,2;4,5,0,2|5,0,2;9,8,7,2|8,7,2;10,11,7,2|11,7,2

>  <current_task>  (272) 
no_task

>  <rotatable_bond_torsions>  (272) 
1,0,2,7;0,2,7,8

$$$$

     RDKit          3D

 13 14  0  0  0  0  0  0  0  0999 V2000
  -27.7050   -7.0990  -30.3050 C   0  0  0  0  0  0  0  0  0  0  0  0
  -27.6350   -7.4810  -31.6130 N   0  0  0  0  0  0  0  0  0  0  0  0
  -27.2660   -8.0350  -29.2140 N   0  0  0  0  0  0  0  0  0  0  0  0
  -28.0510   -6.4570  -32.3780 C   0  0  0  0  0  0  0  0  0  0  0  0
  -28.3730   -5.4420  -31.5290 N   0  0  0  0  0  0  0  0  0  0  0  0
  -28.1640   -5.8330  -30.2840 N   0  0  0  0  0  0  0  0  0  0  0  0
  -28.0990   -5.1280  -28.9760 C   0  0  0  0  0  0  0  0  0  0  0  0
  -28.3150   -8.9010  -28.2120 C   0  0  2  0  0  0  0  0  0  0  0  0
  -27.3650  -10.0730  -28.3740 C   0  0  0  0  0  0  0  0  0  0  0  0
  -28.1080  -11.2320  -28.1650 O   0  0  0  0  0  0  0  0  0  0  0  0
  -29.4750  -10.9160  -28.1810 C   0  0  0  0  0  0  0  0  0  0  0  0
  -29.6130   -9.5080  -28.7110 C   0  0  0  0  0  0  0  0  0  0  0  0
  -29.5660   -4.7430  -28.6190 C   0  0  0  0  0  0  0  0  0  0  0  0
  1  2  2  0
  1  6  1  0
  1  3  1  0
  2  4  1  0
  8  3  1  6
  4  5  2  0
  5  6  1  0
  6  7  1  0
  8 12  1  0
  8  9  1  0
  9 10  1  0
 10 11  1  0
 11 12  1  0
  7 13  1  0
M  END
>  <name>  (273) 
Car Nac Nd0 Car Nac Nac Cs3 C3r C3r O_a C3r C3r Cs3

>  <indices>  (273) 
[0, 1, 2]

>  <tasks>  (273) 
probe_placing close_aromatic_ring close_aromatic_ring close_aromatic_ring ring_built build_to_Nac build_to_Nd0 close_aliphatic_ring close_aliphatic_ring close_aliphatic_ring close_aliphatic_ring

>  <prot_clashes>  (273) 
8

>  <NBS phar>  (273) 
0.0

>  <NBS_non-phar>  (273) 
0.44110536575317383

>  <NBS>  (273) 
0.44110536575317383

>  <source_stage>  (273) 
scored

>  <source_iter>  (273) 
10

>  <source_parent_mol>  (273) 
3

>  <source_scenario>  (273) 
1 2 3 1 0 7 0 8 1 3

>  <source_rank_in_scored_call>  (273) 
35

>  <source_current_task>  (273) 
no_task

>  <scenario>  (273) 
1 2 3 1 0 7 0 8 1

>  <protected_ring_attachments>  (273) 
3,1,0,2|1,0,2;4,5,0,2|5,0,2;9,8,7,2|8,7,2;10,11,7,2|11,7,2

>  <current_task>  (273) 
no_task

>  <rotatable_bond_torsions>  (273) 
1,0,2,7;0,2,7,8

$$$$

     RDKit          3D

 14 15  0  0  0  0  0  0  0  0999 V2000
  -27.9090   -7.3680  -31.2530 C   0  0  0  0  0  0  0  0  0  0  0  0
  -28.0200   -6.8530  -32.5110 N   0  0  0  0  0  0  0  0  0  0  0  0
  -27.5330   -8.8100  -31.0540 N   0  0  0  0  0  0  0  0  0  0  0  0
  -28.3300   -5.5480  -32.4090 C   0  0  0  0  0  0  0  0  0  0  0  0
  -28.4050   -5.2680  -31.0800 N   0  0  0  0  0  0  0  0  0  0  0  0
  -28.1530   -6.3660  -30.3890 N   0  0  0  0  0  0  0  0  0  0  0  0
  -27.8570   -6.6430  -28.9580 C   0  0  0  0  0  0  0  0  0  0  0  0
  -28.5230   -9.7750  -30.9670 C   0  0  1  0  0  0  0  0  0  0  0  0
  -27.9310  -11.1370  -31.2030 C   0  0  0  0  0  0  0  0  0  0  0  0
  -29.0220  -12.1730  -31.1790 C   0  0  0  0  0  0  0  0  0  0  0  0
  -29.6930  -12.1490  -29.8410 C   0  0  0  0  0  0  0  0  0  0  0  0
  -30.2860  -10.7950  -29.6010 C   0  0  0  0  0  0  0  0  0  0  0  0
  -29.2020   -9.7660  -29.6270 C   0  0  0  0  0  0  0  0  0  0  0  0
  -29.2030  -13.0270  -31.9100 O   0  0  0  0  0  0  0  0  0  0  0  0
  1  2  2  0
  1  3  1  0
  1  6  1  0
  2  4  1  0
  8  3  1  1
  4  5  2  0
  5  6  1  0
  6  7  1  0
  8  9  1  0
  8 13  1  0
  9 10  1  0
 10 14  2  0
 10 11  1  0
 11 12  1  0
 12 13  1  0
M  END
>  <name>  (274) 
Car Nac Nd0 Car Nac Nac Cs3 C3r C3r C2r C3r C3r C3r .=O

>  <indices>  (274) 
[0, 1, 2]

>  <tasks>  (274) 
probe_placing close_aromatic_ring close_aromatic_ring close_aromatic_ring ring_built build_to_Nac build_to_Nd0 close_aliphatic_ring close_aliphatic_ring close_aliphatic_ring close_aliphatic_ring close_aliphatic_ring

>  <prot_clashes>  (274) 
5

>  <NBS phar>  (274) 
0.24

>  <NBS_non-phar>  (274) 
0.5952861649649483

>  <NBS>  (274) 
0.8352861649649483

>  <source_stage>  (274) 
scored

>  <source_iter>  (274) 
11

>  <source_parent_mol>  (274) 
3

>  <source_scenario>  (274) 
1 2 3 1 0 7 0 9 3 1 3

>  <source_rank_in_scored_call>  (274) 
3

>  <source_current_task>  (274) 
build_DB_to_Cs2

>  <scenario>  (274) 
1 2 3 1 0 7 0 9 3 1

>  <protected_ring_attachments>  (274) 
3,1,0,2|1,0,2;4,5,0,2|5,0,2;9,8,7,2|8,7,2;11,12,7,2|12,7,2

>  <current_task>  (274) 
no_task

>  <rotatable_bond_torsions>  (274) 
1,0,2,7;0,2,7,8

$$$$

     RDKit          3D

 14 15  0  0  0  0  0  0  0  0999 V2000
  -27.9140   -7.3810  -31.2480 C   0  0  0  0  0  0  0  0  0  0  0  0
  -28.0650   -6.8880  -32.5110 N   0  0  0  0  0  0  0  0  0  0  0  0
  -27.5780   -8.8300  -31.0330 N   0  0  0  0  0  0  0  0  0  0  0  0
  -28.3250   -5.5720  -32.4260 C   0  0  0  0  0  0  0  0  0  0  0  0
  -28.3300   -5.2610  -31.1010 N   0  0  0  0  0  0  0  0  0  0  0  0
  -28.0840   -6.3520  -30.3970 N   0  0  0  0  0  0  0  0  0  0  0  0
  -27.7320   -6.6080  -28.9750 C   0  0  0  0  0  0  0  0  0  0  0  0
  -28.5960   -9.7570  -30.8790 C   0  0  1  0  0  0  0  0  0  0  0  0
  -28.0620  -11.1440  -31.1100 C   0  0  0  0  0  0  0  0  0  0  0  0
  -29.1850  -12.1410  -31.0130 C   0  0  0  0  0  0  0  0  0  0  0  0
  -29.7930  -12.0640  -29.6470 C   0  0  0  0  0  0  0  0  0  0  0  0
  -30.3280  -10.6860  -29.4110 C   0  0  0  0  0  0  0  0  0  0  0  0
  -29.2110   -9.6960  -29.5110 C   0  0  0  0  0  0  0  0  0  0  0  0
  -29.5180  -12.8140  -31.7660 O   0  0  0  0  0  0  0  0  0  0  0  0
  1  2  2  0
  1  3  1  0
  1  6  1  0
  2  4  1  0
  8  3  1  1
  4  5  2  0
  5  6  1  0
  6  7  1  0
  8  9  1  0
  8 13  1  0
  9 10  1  0
 10 14  2  0
 10 11  1  0
 11 12  1  0
 12 13  1  0
M  END
>  <name>  (275) 
Car Nac Nd0 Car Nac Nac Cs3 C3r C3r C2r C3r C3r C3r .=O

>  <indices>  (275) 
[0, 1, 2]

>  <tasks>  (275) 
probe_placing close_aromatic_ring close_aromatic_ring close_aromatic_ring ring_built build_to_Nac build_to_Nd0 close_aliphatic_ring close_aliphatic_ring close_aliphatic_ring close_aliphatic_ring close_aliphatic_ring

>  <prot_clashes>  (275) 
6

>  <NBS phar>  (275) 
0.22000000000000003

>  <NBS_non-phar>  (275) 
0.5285581180027553

>  <NBS>  (275) 
0.7485581180027554

>  <source_stage>  (275) 
scored

>  <source_iter>  (275) 
11

>  <source_parent_mol>  (275) 
3

>  <source_scenario>  (275) 
1 2 3 1 0 7 0 9 3 1 3

>  <source_rank_in_scored_call>  (275) 
4

>  <source_current_task>  (275) 
build_DB_to_Cs2

>  <scenario>  (275) 
1 2 3 1 0 7 0 9 3 1

>  <protected_ring_attachments>  (275) 
3,1,0,2|1,0,2;4,5,0,2|5,0,2;9,8,7,2|8,7,2;11,12,7,2|12,7,2

>  <current_task>  (275) 
no_task

>  <rotatable_bond_torsions>  (275) 
1,0,2,7;0,2,7,8

$$$$

     RDKit          3D

 15 16  0  0  0  0  0  0  0  0999 V2000
  -28.1160   -7.7180  -31.2640 C   0  0  0  0  0  0  0  0  0  0  0  0
  -28.0360   -7.1310  -32.4930 N   0  0  0  0  0  0  0  0  0  0  0  0
  -27.6690   -9.1400  -31.0730 N   0  0  0  0  0  0  0  0  0  0  0  0
  -28.4630   -5.8600  -32.3840 C   0  0  0  0  0  0  0  0  0  0  0  0
  -28.8010   -5.6730  -31.0800 N   0  0  0  0  0  0  0  0  0  0  0  0
  -28.5930   -6.7930  -30.4110 N   0  0  0  0  0  0  0  0  0  0  0  0
  -28.5420   -7.1410  -28.9660 C   0  0  0  0  0  0  0  0  0  0  0  0
  -28.5780  -10.1750  -31.2220 C   0  0  1  0  0  0  0  0  0  0  0  0
  -27.8460  -11.4740  -31.4120 C   0  0  0  0  0  0  0  0  0  0  0  0
  -28.8370  -12.5830  -31.6450 C   0  0  0  0  0  0  0  0  0  0  0  0
  -29.7400  -12.6920  -30.4570 C   0  0  0  0  0  0  0  0  0  0  0  0
  -30.4730  -11.4010  -30.2630 C   0  0  0  0  0  0  0  0  0  0  0  0
  -29.4890  -10.3000  -30.0330 C   0  0  0  0  0  0  0  0  0  0  0  0
  -28.8130  -13.3980  -32.4400 O   0  0  0  0  0  0  0  0  0  0  0  0
  -27.2820   -6.7720  -28.1370 C   0  0  0  0  0  0  0  0  0  0  0  0
  1  2  2  0
  1  3  1  0
  1  6  1  0
  2  4  1  0
  8  3  1  1
  4  5  2  0
  5  6  1  0
  6  7  1  0
  8  9  1  0
  8 13  1  0
  9 10  1  0
 10 14  2  0
 10 11  1  0
 11 12  1  0
 12 13  1  0
  7 15  1  0
M  END
>  <name>  (276) 
Car Nac Nd0 Car Nac Nac Cs3 C3r C3r C2r C3r C3r C3r .=O Cs3

>  <indices>  (276) 
[0, 1, 2]

>  <tasks>  (276) 
probe_placing close_aromatic_ring close_aromatic_ring close_aromatic_ring ring_built build_to_Nac build_to_Nd0 close_aliphatic_ring close_aliphatic_ring close_aliphatic_ring close_aliphatic_ring close_aliphatic_ring build_DB_to_Cs2

>  <prot_clashes>  (276) 
10

>  <NBS phar>  (276) 
0.27999999999999997

>  <NBS_non-phar>  (276) 
0.6668231964111329

>  <NBS>  (276) 
0.9468231964111329

>  <source_stage>  (276) 
scored

>  <source_iter>  (276) 
12

>  <source_parent_mol>  (276) 
2

>  <source_scenario>  (276) 
1 2 3 1 0 7 0 9 3 1 3 2

>  <source_rank_in_scored_call>  (276) 
57

>  <source_current_task>  (276) 
no_task

>  <scenario>  (276) 
1 2 3 1 0 7 0 9 3 1 3

>  <protected_ring_attachments>  (276) 
3,1,0,2|1,0,2;4,5,0,2|5,0,2;9,8,7,2|8,7,2;11,12,7,2|12,7,2

>  <current_task>  (276) 
no_task

>  <rotatable_bond_torsions>  (276) 
1,0,2,7;0,2,7,8

$$$$

     RDKit          3D

 15 16  0  0  0  0  0  0  0  0999 V2000
  -27.6200   -7.9280  -30.8640 C   0  0  0  0  0  0  0  0  0  0  0  0
  -27.6720   -7.1530  -31.9850 N   0  0  0  0  0  0  0  0  0  0  0  0
  -27.2830   -9.3900  -30.9680 N   0  0  0  0  0  0  0  0  0  0  0  0
  -27.9580   -5.8910  -31.6140 C   0  0  0  0  0  0  0  0  0  0  0  0
  -28.0780   -5.9010  -30.2590 N   0  0  0  0  0  0  0  0  0  0  0  0
  -27.8760   -7.1280  -29.8130 N   0  0  0  0  0  0  0  0  0  0  0  0
  -27.6410   -7.7140  -28.4660 C   0  0  0  0  0  0  0  0  0  0  0  0
  -28.2950  -10.3220  -31.1230 C   0  0  1  0  0  0  0  0  0  0  0  0
  -27.7230  -11.6180  -31.6270 C   0  0  0  0  0  0  0  0  0  0  0  0
  -28.8360  -12.6030  -31.8630 C   0  0  0  0  0  0  0  0  0  0  0  0
  -29.5570  -12.8480  -30.5740 C   0  0  0  0  0  0  0  0  0  0  0  0
  -30.1300  -11.5600  -30.0670 C   0  0  0  0  0  0  0  0  0  0  0  0
  -29.0250  -10.5810  -29.8360 C   0  0  0  0  0  0  0  0  0  0  0  0
  -29.0070  -13.2750  -32.7660 O   0  0  0  0  0  0  0  0  0  0  0  0
  -28.1150   -4.6990  -32.5250 C   0  0  0  0  0  0  0  0  0  0  0  0
  1  2  2  0
  1  3  1  0
  1  6  1  0
  2  4  1  0
  8  3  1  1
  4 15  1  0
  4  5  2  0
  5  6  1  0
  6  7  1  0
  8  9  1  0
  8 13  1  0
  9 10  1  0
 10 14  2  0
 10 11  1  0
 11 12  1  0
 12 13  1  0
M  END
>  <name>  (277) 
Car Nac Nd0 Car Nac Nac Cs3 C3r C3r C2r C3r C3r C3r .=O Cs3

>  <indices>  (277) 
[0, 1, 2]

>  <tasks>  (277) 
probe_placing close_aromatic_ring close_aromatic_ring close_aromatic_ring ring_built build_to_Nac build_to_Nd0 close_aliphatic_ring close_aliphatic_ring close_aliphatic_ring close_aliphatic_ring close_aliphatic_ring build_DB_to_Cs2

>  <prot_clashes>  (277) 
7

>  <NBS phar>  (277) 
0.34

>  <NBS_non-phar>  (277) 
0.5748916625976562

>  <NBS>  (277) 
0.9148916625976562

>  <source_stage>  (277) 
scored

>  <source_iter>  (277) 
12

>  <source_parent_mol>  (277) 
2

>  <source_scenario>  (277) 
1 2 3 1 0 7 0 9 3 1 3 2

>  <source_rank_in_scored_call>  (277) 
74

>  <source_current_task>  (277) 
no_task

>  <scenario>  (277) 
1 2 3 1 0 7 0 9 3 1 3

>  <protected_ring_attachments>  (277) 
3,1,0,2|1,0,2;4,5,0,2|5,0,2;9,8,7,2|8,7,2;11,12,7,2|12,7,2

>  <current_task>  (277) 
no_task

>  <rotatable_bond_torsions>  (277) 
1,0,2,7;0,2,7,8

$$$$

     RDKit          3D

 15 16  0  0  0  0  0  0  0  0999 V2000
  -27.7770   -7.3100  -31.3010 C   0  0  0  0  0  0  0  0  0  0  0  0
  -27.8500   -6.8360  -32.5780 N   0  0  0  0  0  0  0  0  0  0  0  0
  -27.4940   -8.7640  -31.0470 N   0  0  0  0  0  0  0  0  0  0  0  0
  -28.0770   -5.5110  -32.5260 C   0  0  0  0  0  0  0  0  0  0  0  0
  -28.1400   -5.1780  -31.2080 N   0  0  0  0  0  0  0  0  0  0  0  0
  -27.9600   -6.2630  -30.4760 N   0  0  0  0  0  0  0  0  0  0  0  0
  -27.6880   -6.5050  -29.0340 C   0  0  0  0  0  0  0  0  0  0  0  0
  -28.5440   -9.6610  -30.9310 C   0  0  1  0  0  0  0  0  0  0  0  0
  -28.0390  -11.0650  -31.1130 C   0  0  0  0  0  0  0  0  0  0  0  0
  -29.1930  -12.0290  -31.0570 C   0  0  0  0  0  0  0  0  0  0  0  0
  -29.8670  -11.9130  -29.7250 C   0  0  0  0  0  0  0  0  0  0  0  0
  -30.3730  -10.5160  -29.5390 C   0  0  0  0  0  0  0  0  0  0  0  0
  -29.2260   -9.5590  -29.5960 C   0  0  0  0  0  0  0  0  0  0  0  0
  -29.4250  -12.8960  -31.7580 O   0  0  0  0  0  0  0  0  0  0  0  0
  -29.0230   -6.2100  -28.2870 C   0  0  0  0  0  0  0  0  0  0  0  0
  1  2  2  0
  1  3  1  0
  1  6  1  0
  2  4  1  0
  8  3  1  1
  4  5  2  0
  5  6  1  0
  6  7  1  0
  8  9  1  0
  8 13  1  0
  9 10  1  0
 10 14  2  0
 10 11  1  0
 11 12  1  0
 12 13  1  0
  7 15  1  0
M  END
>  <name>  (278) 
Car Nac Nd0 Car Nac Nac Cs3 C3r C3r C2r C3r C3r C3r .=O Cs3

>  <indices>  (278) 
[0, 1, 2]

>  <tasks>  (278) 
probe_placing close_aromatic_ring close_aromatic_ring close_aromatic_ring ring_built build_to_Nac build_to_Nd0 close_aliphatic_ring close_aliphatic_ring close_aliphatic_ring close_aliphatic_ring close_aliphatic_ring build_DB_to_Cs2

>  <prot_clashes>  (278) 
10

>  <NBS phar>  (278) 
0.32

>  <NBS_non-phar>  (278) 
0.5068622907002767

>  <NBS>  (278) 
0.8268622907002767

>  <source_stage>  (278) 
scored

>  <source_iter>  (278) 
12

>  <source_parent_mol>  (278) 
2

>  <source_scenario>  (278) 
1 2 3 1 0 7 0 9 3 1 3 2

>  <source_rank_in_scored_call>  (278) 
146

>  <source_current_task>  (278) 
no_task

>  <scenario>  (278) 
1 2 3 1 0 7 0 9 3 1 3

>  <protected_ring_attachments>  (278) 
3,1,0,2|1,0,2;4,5,0,2|5,0,2;9,8,7,2|8,7,2;11,12,7,2|12,7,2

>  <current_task>  (278) 
no_task

>  <rotatable_bond_torsions>  (278) 
1,0,2,7;0,2,7,8

$$$$

     RDKit          3D

 15 16  0  0  0  0  0  0  0  0999 V2000
  -27.9580   -7.3720  -31.2790 C   0  0  0  0  0  0  0  0  0  0  0  0
  -28.0040   -6.9140  -32.5630 N   0  0  0  0  0  0  0  0  0  0  0  0
  -27.5860   -8.8010  -30.9960 N   0  0  0  0  0  0  0  0  0  0  0  0
  -28.3250   -5.6080  -32.5360 C   0  0  0  0  0  0  0  0  0  0  0  0
  -28.4720   -5.2700  -31.2260 N   0  0  0  0  0  0  0  0  0  0  0  0
  -28.2520   -6.3340  -30.4750 N   0  0  0  0  0  0  0  0  0  0  0  0
  -28.0320   -6.5460  -29.0190 C   0  0  0  0  0  0  0  0  0  0  0  0
  -28.5750   -9.7680  -30.9180 C   0  0  1  0  0  0  0  0  0  0  0  0
  -27.9650  -11.1350  -31.0620 C   0  0  0  0  0  0  0  0  0  0  0  0
  -29.0510  -12.1770  -31.0490 C   0  0  0  0  0  0  0  0  0  0  0  0
  -29.7920  -12.0980  -29.7510 C   0  0  0  0  0  0  0  0  0  0  0  0
  -30.4040  -10.7390  -29.6040 C   0  0  0  0  0  0  0  0  0  0  0  0
  -29.3250   -9.7050  -29.6180 C   0  0  0  0  0  0  0  0  0  0  0  0
  -29.1880  -13.0640  -31.7500 O   0  0  0  0  0  0  0  0  0  0  0  0
  -27.6910   -5.1230  -28.3880 C   0  0  0  0  0  0  0  0  0  0  0  0
  1  2  2  0
  1  3  1  0
  1  6  1  0
  2  4  1  0
  8  3  1  1
  4  5  2  0
  5  6  1  0
  6  7  1  0
  8  9  1  0
  8 13  1  0
  9 10  1  0
 10 14  2  0
 10 11  1  0
 11 12  1  0
 12 13  1  0
  7 15  1  0
M  END
>  <name>  (279) 
Car Nac Nd0 Car Nac Nac Cs3 C3r C3r C2r C3r C3r C3r .=O Cs3

>  <indices>  (279) 
[0, 1, 2]

>  <tasks>  (279) 
probe_placing close_aromatic_ring close_aromatic_ring close_aromatic_ring ring_built build_to_Nac build_to_Nd0 close_aliphatic_ring close_aliphatic_ring close_aliphatic_ring close_aliphatic_ring close_aliphatic_ring build_DB_to_Cs2

>  <prot_clashes>  (279) 
11

>  <NBS phar>  (279) 
0.24

>  <NBS_non-phar>  (279) 
0.5595563252766927

>  <NBS>  (279) 
0.7995563252766927

>  <source_stage>  (279) 
scored

>  <source_iter>  (279) 
12

>  <source_parent_mol>  (279) 
2

>  <source_scenario>  (279) 
1 2 3 1 0 7 0 9 3 1 3 2

>  <source_rank_in_scored_call>  (279) 
169

>  <source_current_task>  (279) 
no_task

>  <scenario>  (279) 
1 2 3 1 0 7 0 9 3 1 3

>  <protected_ring_attachments>  (279) 
3,1,0,2|1,0,2;4,5,0,2|5,0,2;9,8,7,2|8,7,2;11,12,7,2|12,7,2

>  <current_task>  (279) 
no_task

>  <rotatable_bond_torsions>  (279) 
1,0,2,7;0,2,7,8

$$$$

     RDKit          3D

 15 16  0  0  0  0  0  0  0  0999 V2000
  -28.1290   -7.5730  -31.2730 C   0  0  0  0  0  0  0  0  0  0  0  0
  -28.0000   -7.0230  -32.5140 N   0  0  0  0  0  0  0  0  0  0  0  0
  -27.6860   -8.9880  -31.0200 N   0  0  0  0  0  0  0  0  0  0  0  0
  -28.4340   -5.7500  -32.4600 C   0  0  0  0  0  0  0  0  0  0  0  0
  -28.8260   -5.5260  -31.1770 N   0  0  0  0  0  0  0  0  0  0  0  0
  -28.6430   -6.6260  -30.4680 N   0  0  0  0  0  0  0  0  0  0  0  0
  -28.6510   -6.9310  -29.0120 C   0  0  0  0  0  0  0  0  0  0  0  0
  -28.5860  -10.0300  -31.1760 C   0  0  1  0  0  0  0  0  0  0  0  0
  -27.8430  -11.3320  -31.2980 C   0  0  0  0  0  0  0  0  0  0  0  0
  -28.8210  -12.4500  -31.5390 C   0  0  0  0  0  0  0  0  0  0  0  0
  -29.7730  -12.5280  -30.3860 C   0  0  0  0  0  0  0  0  0  0  0  0
  -30.5160  -11.2340  -30.2610 C   0  0  0  0  0  0  0  0  0  0  0  0
  -29.5450  -10.1230  -30.0230 C   0  0  0  0  0  0  0  0  0  0  0  0
  -28.7620  -13.2880  -32.3070 O   0  0  0  0  0  0  0  0  0  0  0  0
  -27.3070   -6.5930  -28.3990 C   0  0  0  0  0  0  0  0  0  0  0  0
  1  2  2  0
  1  3  1  0
  1  6  1  0
  2  4  1  0
  8  3  1  1
  4  5  2  0
  5  6  1  0
  6  7  1  0
  8  9  1  0
  8 13  1  0
  9 10  1  0
 10 14  2  0
 10 11  1  0
 11 12  1  0
 12 13  1  0
  7 15  1  0
M  END
>  <name>  (280) 
Car Nac Nd0 Car Nac Nac Cs3 C3r C3r C2r C3r C3r C3r .=O Cs3

>  <indices>  (280) 
[0, 1, 2]

>  <tasks>  (280) 
probe_placing close_aromatic_ring close_aromatic_ring close_aromatic_ring ring_built build_to_Nac build_to_Nd0 close_aliphatic_ring close_aliphatic_ring close_aliphatic_ring close_aliphatic_ring close_aliphatic_ring build_DB_to_Cs2

>  <prot_clashes>  (280) 
11

>  <NBS phar>  (280) 
0.15999999999999998

>  <NBS_non-phar>  (280) 
0.5592993418375651

>  <NBS>  (280) 
0.719299341837565

>  <source_stage>  (280) 
scored

>  <source_iter>  (280) 
12

>  <source_parent_mol>  (280) 
2

>  <source_scenario>  (280) 
1 2 3 1 0 7 0 9 3 1 3 2

>  <source_rank_in_scored_call>  (280) 
216

>  <source_current_task>  (280) 
no_task

>  <scenario>  (280) 
1 2 3 1 0 7 0 9 3 1 3

>  <protected_ring_attachments>  (280) 
3,1,0,2|1,0,2;4,5,0,2|5,0,2;9,8,7,2|8,7,2;11,12,7,2|12,7,2

>  <current_task>  (280) 
no_task

>  <rotatable_bond_torsions>  (280) 
1,0,2,7;0,2,7,8

$$$$

     RDKit          3D

 15 16  0  0  0  0  0  0  0  0999 V2000
  -27.9820   -7.3400  -31.2480 C   0  0  0  0  0  0  0  0  0  0  0  0
  -28.0540   -6.9830  -32.5620 N   0  0  0  0  0  0  0  0  0  0  0  0
  -27.6370   -8.7520  -30.8630 N   0  0  0  0  0  0  0  0  0  0  0  0
  -28.3430   -5.6710  -32.6290 C   0  0  0  0  0  0  0  0  0  0  0  0
  -28.4440   -5.2270  -31.3470 N   0  0  0  0  0  0  0  0  0  0  0  0
  -28.2280   -6.2350  -30.5200 N   0  0  0  0  0  0  0  0  0  0  0  0
  -27.9710   -6.3380  -29.0590 C   0  0  0  0  0  0  0  0  0  0  0  0
  -28.6460   -9.6840  -30.6840 C   0  0  1  0  0  0  0  0  0  0  0  0
  -28.0730  -11.0730  -30.7350 C   0  0  0  0  0  0  0  0  0  0  0  0
  -29.1830  -12.0820  -30.6110 C   0  0  0  0  0  0  0  0  0  0  0  0
  -29.8850  -11.8830  -29.3040 C   0  0  0  0  0  0  0  0  0  0  0  0
  -30.4590  -10.5010  -29.2480 C   0  0  0  0  0  0  0  0  0  0  0  0
  -29.3560   -9.4990  -29.3730 C   0  0  0  0  0  0  0  0  0  0  0  0
  -29.3620  -13.0170  -31.2360 O   0  0  0  0  0  0  0  0  0  0  0  0
  -27.7400   -4.9790  -28.3910 C   0  0  0  0  0  0  0  0  0  0  0  0
  1  2  2  0
  1  3  1  0
  1  6  1  0
  2  4  1  0
  8  3  1  1
  4  5  2  0
  5  6  1  0
  6  7  1  0
  8  9  1  0
  8 13  1  0
  9 10  1  0
 10 14  2  0
 10 11  1  0
 11 12  1  0
 12 13  1  0
  7 15  1  0
M  END
>  <name>  (281) 
Car Nac Nd0 Car Nac Nac Cs3 C3r C3r C2r C3r C3r C3r .=O Cs3

>  <indices>  (281) 
[0, 1, 2]

>  <tasks>  (281) 
probe_placing close_aromatic_ring close_aromatic_ring close_aromatic_ring ring_built build_to_Nac build_to_Nd0 close_aliphatic_ring close_aliphatic_ring close_aliphatic_ring close_aliphatic_ring close_aliphatic_ring build_DB_to_Cs2

>  <prot_clashes>  (281) 
12

>  <NBS phar>  (281) 
0.22000000000000003

>  <NBS_non-phar>  (281) 
0.48590793609619143

>  <NBS>  (281) 
0.7059079360961915

>  <source_stage>  (281) 
scored

>  <source_iter>  (281) 
12

>  <source_parent_mol>  (281) 
2

>  <source_scenario>  (281) 
1 2 3 1 0 7 0 9 3 1 3 2

>  <source_rank_in_scored_call>  (281) 
219

>  <source_current_task>  (281) 
no_task

>  <scenario>  (281) 
1 2 3 1 0 7 0 9 3 1 3

>  <protected_ring_attachments>  (281) 
3,1,0,2|1,0,2;4,5,0,2|5,0,2;9,8,7,2|8,7,2;11,12,7,2|12,7,2

>  <current_task>  (281) 
no_task

>  <rotatable_bond_torsions>  (281) 
1,0,2,7;0,2,7,8

$$$$

     RDKit          3D

 15 16  0  0  0  0  0  0  0  0999 V2000
  -27.9540   -7.3420  -31.2080 C   0  0  0  0  0  0  0  0  0  0  0  0
  -27.8250   -6.9880  -32.5190 N   0  0  0  0  0  0  0  0  0  0  0  0
  -27.6480   -8.7470  -30.7680 N   0  0  0  0  0  0  0  0  0  0  0  0
  -28.1240   -5.6810  -32.6360 C   0  0  0  0  0  0  0  0  0  0  0  0
  -28.4330   -5.2390  -31.3870 N   0  0  0  0  0  0  0  0  0  0  0  0
  -28.3310   -6.2410  -30.5320 N   0  0  0  0  0  0  0  0  0  0  0  0
  -28.3040   -6.3370  -29.0480 C   0  0  0  0  0  0  0  0  0  0  0  0
  -28.6550   -9.6970  -30.7450 C   0  0  1  0  0  0  0  0  0  0  0  0
  -28.0560  -11.0760  -30.7000 C   0  0  0  0  0  0  0  0  0  0  0  0
  -29.1530  -12.1050  -30.7480 C   0  0  0  0  0  0  0  0  0  0  0  0
  -30.0550  -11.9170  -29.5680 C   0  0  0  0  0  0  0  0  0  0  0  0
  -30.6550  -10.5460  -29.6080 C   0  0  0  0  0  0  0  0  0  0  0  0
  -29.5650   -9.5240  -29.5620 C   0  0  0  0  0  0  0  0  0  0  0  0
  -29.2150  -13.0440  -31.3890 O   0  0  0  0  0  0  0  0  0  0  0  0
  -29.1870   -5.2940  -28.3960 C   0  0  0  0  0  0  0  0  0  0  0  0
  1  2  2  0
  1  3  1  0
  1  6  1  0
  2  4  1  0
  8  3  1  1
  4  5  2  0
  5  6  1  0
  6  7  1  0
  8  9  1  0
  8 13  1  0
  9 10  1  0
 10 14  2  0
 10 11  1  0
 11 12  1  0
 12 13  1  0
  7 15  1  0
M  END
>  <name>  (282) 
Car Nac Nd0 Car Nac Nac Cs3 C3r C3r C2r C3r C3r C3r .=O Cs3

>  <indices>  (282) 
[0, 1, 2]

>  <tasks>  (282) 
probe_placing close_aromatic_ring close_aromatic_ring close_aromatic_ring ring_built build_to_Nac build_to_Nd0 close_aliphatic_ring close_aliphatic_ring close_aliphatic_ring close_aliphatic_ring close_aliphatic_ring build_DB_to_Cs2

>  <prot_clashes>  (282) 
11

>  <NBS phar>  (282) 
0.22000000000000003

>  <NBS_non-phar>  (282) 
0.43648430506388347

>  <NBS>  (282) 
0.6564843050638836

>  <source_stage>  (282) 
scored

>  <source_iter>  (282) 
12

>  <source_parent_mol>  (282) 
2

>  <source_scenario>  (282) 
1 2 3 1 0 7 0 9 3 1 3 2

>  <source_rank_in_scored_call>  (282) 
235

>  <source_current_task>  (282) 
no_task

>  <scenario>  (282) 
1 2 3 1 0 7 0 9 3 1 3

>  <protected_ring_attachments>  (282) 
3,1,0,2|1,0,2;4,5,0,2|5,0,2;9,8,7,2|8,7,2;11,12,7,2|12,7,2

>  <current_task>  (282) 
no_task

>  <rotatable_bond_torsions>  (282) 
1,0,2,7;0,2,7,8

$$$$

     RDKit          3D

 14 15  0  0  0  0  0  0  0  0999 V2000
  -27.7210   -7.3520  -31.2500 C   0  0  0  0  0  0  0  0  0  0  0  0
  -27.7120   -6.8360  -32.5130 N   0  0  0  0  0  0  0  0  0  0  0  0
  -27.3310   -8.7830  -31.0130 N   0  0  0  0  0  0  0  0  0  0  0  0
  -28.0640   -5.5400  -32.4450 C   0  0  0  0  0  0  0  0  0  0  0  0
  -28.2890   -5.2650  -31.1300 N   0  0  0  0  0  0  0  0  0  0  0  0
  -28.0820   -6.3580  -30.4170 N   0  0  0  0  0  0  0  0  0  0  0  0
  -27.9330   -6.6300  -28.9620 C   0  0  0  0  0  0  0  0  0  0  0  0
  -28.0440   -9.7960  -30.8410 C   0  0  2  0  0  0  0  0  0  0  0  0
  -28.0630  -11.0210  -31.7690 C   0  0  0  0  0  0  0  0  0  0  0  0
  -28.2740  -12.2110  -30.8780 C   0  0  0  0  0  0  0  0  0  0  0  0
  -29.5860  -12.0360  -30.1520 C   0  0  0  0  0  0  0  0  0  0  0  0
  -29.5910  -10.8890  -29.3740 O   0  0  0  0  0  0  0  0  0  0  0  0
  -29.3910   -9.7360  -30.1180 C   0  0  0  0  0  0  0  0  0  0  0  0
  -27.6210  -13.1500  -31.0240 O   0  0  0  0  0  0  0  0  0  0  0  0
  1  2  2  0
  1  3  1  0
  1  6  1  0
  2  4  1  0
  8  3  1  6
  4  5  2  0
  5  6  1  0
  6  7  1  0
  8  9  1  0
  8 13  1  0
  9 10  1  0
 10 14  2  0
 10 11  1  0
 11 12  1  0
 12 13  1  0
M  END
>  <name>  (283) 
Car Nac Nd0 Car Nac Nac Cs3 C3r C3r C2r C3r O_a C3r .=O

>  <indices>  (283) 
[0, 1, 2]

>  <tasks>  (283) 
probe_placing close_aromatic_ring close_aromatic_ring close_aromatic_ring ring_built build_to_Nac build_to_Nd0 close_aliphatic_ring close_aliphatic_ring close_aliphatic_ring close_aliphatic_ring close_aliphatic_ring

>  <prot_clashes>  (283) 
6

>  <NBS phar>  (283) 
0.18

>  <NBS_non-phar>  (283) 
0.4404349667685373

>  <NBS>  (283) 
0.6204349667685373

>  <source_stage>  (283) 
scored

>  <source_iter>  (283) 
11

>  <source_parent_mol>  (283) 
0

>  <source_scenario>  (283) 
1 2 3 1 0 7 0 9 3 4 0

>  <source_rank_in_scored_call>  (283) 
1

>  <source_current_task>  (283) 
build_DB_to_Cs2

>  <scenario>  (283) 
1 2 3 1 0 7 0 9 3 4

>  <protected_ring_attachments>  (283) 
3,1,0,2|1,0,2;4,5,0,2|5,0,2;9,8,7,2|8,7,2;11,12,7,2|12,7,2

>  <current_task>  (283) 
no_task

>  <rotatable_bond_torsions>  (283) 
1,0,2,7;0,2,7,8

>  <reason_to_skip>  (283) 
global_duplicate

>  <global_duplicate_rmsd>  (283) 
0.0

>  <global_duplicate_old_source_iter>  (283) 
10

>  <global_duplicate_old_source_parent_mol>  (283) 
4

>  <global_duplicate_old_index>  (283) 
NA

>  <global_duplicate_rotatable_bond_torsions>  (283) 
1,0,2,7;0,2,7,8

>  <global_duplicate_old_rotatable_bond_torsions>  (283) 
1,0,2,7;0,2,7,8

>  <global_duplicate_last_growth_torsion>  (283) 
(9, 10, 11, 12)

>  <global_duplicate_protected_ring_attachments>  (283) 
3,1,0,2|1,0,2;4,5,0,2|5,0,2;9,8,7,2|8,7,2;11,12,7,2|12,7,2

>  <global_duplicate_old_last_growth_torsion>  (283) 
(9, 10, 11, 12)

>  <global_duplicate_old_protected_ring_attachments>  (283) 
3,1,0,2|1,0,2;4,5,0,2|5,0,2;9,8,7,2|8,7,2;11,12,7,2|12,7,2

$$$$

     RDKit          3D

 14 15  0  0  0  0  0  0  0  0999 V2000
  -27.7250   -7.3550  -31.2460 C   0  0  0  0  0  0  0  0  0  0  0  0
  -27.7210   -6.8390  -32.5090 N   0  0  0  0  0  0  0  0  0  0  0  0
  -27.3440   -8.7890  -31.0120 N   0  0  0  0  0  0  0  0  0  0  0  0
  -28.0630   -5.5400  -32.4380 C   0  0  0  0  0  0  0  0  0  0  0  0
  -28.2760   -5.2650  -31.1220 N   0  0  0  0  0  0  0  0  0  0  0  0
  -28.0730   -6.3590  -30.4100 N   0  0  0  0  0  0  0  0  0  0  0  0
  -27.9150   -6.6320  -28.9560 C   0  0  0  0  0  0  0  0  0  0  0  0
  -28.0630   -9.7960  -30.8360 C   0  0  2  0  0  0  0  0  0  0  0  0
  -28.0980  -11.0220  -31.7630 C   0  0  0  0  0  0  0  0  0  0  0  0
  -28.3110  -12.2100  -30.8710 C   0  0  0  0  0  0  0  0  0  0  0  0
  -29.6170  -12.0250  -30.1350 C   0  0  0  0  0  0  0  0  0  0  0  0
  -29.6070  -10.8780  -29.3570 O   0  0  0  0  0  0  0  0  0  0  0  0
  -29.4040   -9.7270  -30.1030 C   0  0  0  0  0  0  0  0  0  0  0  0
  -27.6840  -13.0500  -30.7390 O   0  0  0  0  0  0  0  0  0  0  0  0
  1  2  2  0
  1  3  1  0
  1  6  1  0
  2  4  1  0
  8  3  1  6
  4  5  2  0
  5  6  1  0
  6  7  1  0
  8  9  1  0
  8 13  1  0
  9 10  1  0
 10 14  2  0
 10 11  1  0
 11 12  1  0
 12 13  1  0
M  END
>  <name>  (284) 
Car Nac Nd0 Car Nac Nac Cs3 C3r C3r C2r C3r O_a C3r .=O

>  <indices>  (284) 
[0, 1, 2]

>  <tasks>  (284) 
probe_placing close_aromatic_ring close_aromatic_ring close_aromatic_ring ring_built build_to_Nac build_to_Nd0 close_aliphatic_ring close_aliphatic_ring close_aliphatic_ring close_aliphatic_ring close_aliphatic_ring

>  <prot_clashes>  (284) 
6

>  <NBS phar>  (284) 
0.15999999999999998

>  <NBS_non-phar>  (284) 
0.44532425062997

>  <NBS>  (284) 
0.60532425062997

>  <source_stage>  (284) 
scored

>  <source_iter>  (284) 
11

>  <source_parent_mol>  (284) 
0

>  <source_scenario>  (284) 
1 2 3 1 0 7 0 9 3 4 0

>  <source_rank_in_scored_call>  (284) 
2

>  <source_current_task>  (284) 
build_DB_to_Cs2

>  <scenario>  (284) 
1 2 3 1 0 7 0 9 3 4

>  <protected_ring_attachments>  (284) 
3,1,0,2|1,0,2;4,5,0,2|5,0,2;9,8,7,2|8,7,2;11,12,7,2|12,7,2

>  <current_task>  (284) 
no_task

>  <rotatable_bond_torsions>  (284) 
1,0,2,7;0,2,7,8

>  <reason_to_skip>  (284) 
global_duplicate

>  <global_duplicate_rmsd>  (284) 
0.0

>  <global_duplicate_old_source_iter>  (284) 
10

>  <global_duplicate_old_source_parent_mol>  (284) 
4

>  <global_duplicate_old_index>  (284) 
NA

>  <global_duplicate_rotatable_bond_torsions>  (284) 
1,0,2,7;0,2,7,8

>  <global_duplicate_old_rotatable_bond_torsions>  (284) 
1,0,2,7;0,2,7,8

>  <global_duplicate_last_growth_torsion>  (284) 
(9, 10, 11, 12)

>  <global_duplicate_protected_ring_attachments>  (284) 
3,1,0,2|1,0,2;4,5,0,2|5,0,2;9,8,7,2|8,7,2;11,12,7,2|12,7,2

>  <global_duplicate_old_last_growth_torsion>  (284) 
(9, 10, 11, 12)

>  <global_duplicate_old_protected_ring_attachments>  (284) 
3,1,0,2|1,0,2;4,5,0,2|5,0,2;9,8,7,2|8,7,2;11,12,7,2|12,7,2

$$$$

     RDKit          3D

 15 16  0  0  0  0  0  0  0  0999 V2000
  -28.0120   -7.7460  -31.2840 C   0  0  0  0  0  0  0  0  0  0  0  0
  -27.9380   -7.1610  -32.5140 N   0  0  0  0  0  0  0  0  0  0  0  0
  -27.4950   -9.1410  -31.0750 N   0  0  0  0  0  0  0  0  0  0  0  0
  -28.4320   -5.9140  -32.4220 C   0  0  0  0  0  0  0  0  0  0  0  0
  -28.8100   -5.7380  -31.1250 N   0  0  0  0  0  0  0  0  0  0  0  0
  -28.5550   -6.8430  -30.4460 N   0  0  0  0  0  0  0  0  0  0  0  0
  -28.5170   -7.1800  -28.9980 C   0  0  0  0  0  0  0  0  0  0  0  0
  -28.1080  -10.2290  -31.0230 C   0  0  2  0  0  0  0  0  0  0  0  0
  -27.9070  -11.3960  -32.0030 C   0  0  0  0  0  0  0  0  0  0  0  0
  -28.0720  -12.6490  -31.1940 C   0  0  0  0  0  0  0  0  0  0  0  0
  -29.4590  -12.6510  -30.5960 C   0  0  0  0  0  0  0  0  0  0  0  0
  -29.6610  -11.5560  -29.7710 O   0  0  0  0  0  0  0  0  0  0  0  0
  -29.5160  -10.3490  -30.4370 C   0  0  0  0  0  0  0  0  0  0  0  0
  -27.3110  -13.5070  -31.3170 O   0  0  0  0  0  0  0  0  0  0  0  0
  -27.2960   -6.7390  -28.1450 C   0  0  0  0  0  0  0  0  0  0  0  0
  1  2  2  0
  1  3  1  0
  1  6  1  0
  2  4  1  0
  8  3  1  6
  4  5  2  0
  5  6  1  0
  6  7  1  0
  8  9  1  0
  8 13  1  0
  9 10  1  0
 10 14  2  0
 10 11  1  0
 11 12  1  0
 12 13  1  0
  7 15  1  0
M  END
>  <name>  (285) 
Car Nac Nd0 Car Nac Nac Cs3 C3r C3r C2r C3r O_a C3r .=O Cs3

>  <indices>  (285) 
[0, 1, 2]

>  <tasks>  (285) 
probe_placing close_aromatic_ring close_aromatic_ring close_aromatic_ring ring_built build_to_Nac build_to_Nd0 close_aliphatic_ring close_aliphatic_ring close_aliphatic_ring close_aliphatic_ring close_aliphatic_ring build_DB_to_Cs2

>  <prot_clashes>  (285) 
12

>  <NBS phar>  (285) 
0.26000000000000006

>  <NBS_non-phar>  (285) 
0.5739082972208659

>  <NBS>  (285) 
0.833908297220866

>  <source_stage>  (285) 
scored

>  <source_iter>  (285) 
12

>  <source_parent_mol>  (285) 
1

>  <source_scenario>  (285) 
1 2 3 1 0 7 0 9 3 4 0 1

>  <source_rank_in_scored_call>  (285) 
15

>  <source_current_task>  (285) 
no_task

>  <scenario>  (285) 
1 2 3 1 0 7 0 9 3 4 0

>  <protected_ring_attachments>  (285) 
3,1,0,2|1,0,2;4,5,0,2|5,0,2;9,8,7,2|8,7,2;11,12,7,2|12,7,2

>  <current_task>  (285) 
no_task

>  <rotatable_bond_torsions>  (285) 
1,0,2,7;0,2,7,8

>  <reason_to_skip>  (285) 
global_duplicate

>  <global_duplicate_rmsd>  (285) 
0.0

>  <global_duplicate_old_source_iter>  (285) 
10

>  <global_duplicate_old_source_parent_mol>  (285) 
4

>  <global_duplicate_old_index>  (285) 
NA

>  <global_duplicate_rotatable_bond_torsions>  (285) 
1,0,2,7;0,2,7,8

>  <global_duplicate_old_rotatable_bond_torsions>  (285) 
1,0,2,7;0,2,7,8

>  <global_duplicate_last_growth_torsion>  (285) 
(9, 10, 11, 12)

>  <global_duplicate_protected_ring_attachments>  (285) 
3,1,0,2|1,0,2;4,5,0,2|5,0,2;9,8,7,2|8,7,2;11,12,7,2|12,7,2

>  <global_duplicate_old_last_growth_torsion>  (285) 
(9, 10, 11, 12)

>  <global_duplicate_old_protected_ring_attachments>  (285) 
3,1,0,2|1,0,2;4,5,0,2|5,0,2;9,8,7,2|8,7,2;11,12,7,2|12,7,2

$$$$

     RDKit          3D

 15 16  0  0  0  0  0  0  0  0999 V2000
  -27.9370   -7.5180  -31.2780 C   0  0  0  0  0  0  0  0  0  0  0  0
  -27.7470   -6.9580  -32.5070 N   0  0  0  0  0  0  0  0  0  0  0  0
  -27.4610   -8.9150  -30.9990 N   0  0  0  0  0  0  0  0  0  0  0  0
  -28.2290   -5.7030  -32.4810 C   0  0  0  0  0  0  0  0  0  0  0  0
  -28.7160   -5.4980  -31.2260 N   0  0  0  0  0  0  0  0  0  0  0  0
  -28.5390   -6.5930  -30.5080 N   0  0  0  0  0  0  0  0  0  0  0  0
  -28.6340   -6.9030  -29.0560 C   0  0  0  0  0  0  0  0  0  0  0  0
  -28.0920   -9.9950  -30.9820 C   0  0  2  0  0  0  0  0  0  0  0  0
  -27.8220  -11.1820  -31.9210 C   0  0  0  0  0  0  0  0  0  0  0  0
  -28.0770  -12.4180  -31.1070 C   0  0  0  0  0  0  0  0  0  0  0  0
  -29.5100  -12.3900  -30.6350 C   0  0  0  0  0  0  0  0  0  0  0  0
  -29.7690  -11.2780  -29.8500 O   0  0  0  0  0  0  0  0  0  0  0  0
  -29.5480  -10.0850  -30.5220 C   0  0  0  0  0  0  0  0  0  0  0  0
  -27.3200  -13.2870  -31.1470 O   0  0  0  0  0  0  0  0  0  0  0  0
  -27.3490   -6.5170  -28.3550 C   0  0  0  0  0  0  0  0  0  0  0  0
  1  2  2  0
  1  3  1  0
  1  6  1  0
  2  4  1  0
  8  3  1  6
  4  5  2  0
  5  6  1  0
  6  7  1  0
  8  9  1  0
  8 13  1  0
  9 10  1  0
 10 14  2  0
 10 11  1  0
 11 12  1  0
 12 13  1  0
  7 15  1  0
M  END
>  <name>  (286) 
Car Nac Nd0 Car Nac Nac Cs3 C3r C3r C2r C3r O_a C3r .=O Cs3

>  <indices>  (286) 
[0, 1, 2]

>  <tasks>  (286) 
probe_placing close_aromatic_ring close_aromatic_ring close_aromatic_ring ring_built build_to_Nac build_to_Nd0 close_aliphatic_ring close_aliphatic_ring close_aliphatic_ring close_aliphatic_ring close_aliphatic_ring build_DB_to_Cs2

>  <prot_clashes>  (286) 
12

>  <NBS phar>  (286) 
0.26000000000000006

>  <NBS_non-phar>  (286) 
0.5184186617533366

>  <NBS>  (286) 
0.7784186617533366

>  <source_stage>  (286) 
scored

>  <source_iter>  (286) 
12

>  <source_parent_mol>  (286) 
1

>  <source_scenario>  (286) 
1 2 3 1 0 7 0 9 3 4 0 1

>  <source_rank_in_scored_call>  (286) 
22

>  <source_current_task>  (286) 
no_task

>  <scenario>  (286) 
1 2 3 1 0 7 0 9 3 4 0

>  <protected_ring_attachments>  (286) 
3,1,0,2|1,0,2;4,5,0,2|5,0,2;9,8,7,2|8,7,2;11,12,7,2|12,7,2

>  <current_task>  (286) 
no_task

>  <rotatable_bond_torsions>  (286) 
1,0,2,7;0,2,7,8

>  <reason_to_skip>  (286) 
global_duplicate

>  <global_duplicate_rmsd>  (286) 
0.0

>  <global_duplicate_old_source_iter>  (286) 
10

>  <global_duplicate_old_source_parent_mol>  (286) 
4

>  <global_duplicate_old_index>  (286) 
NA

>  <global_duplicate_rotatable_bond_torsions>  (286) 
1,0,2,7;0,2,7,8

>  <global_duplicate_old_rotatable_bond_torsions>  (286) 
1,0,2,7;0,2,7,8

>  <global_duplicate_last_growth_torsion>  (286) 
(9, 10, 11, 12)

>  <global_duplicate_protected_ring_attachments>  (286) 
3,1,0,2|1,0,2;4,5,0,2|5,0,2;9,8,7,2|8,7,2;11,12,7,2|12,7,2

>  <global_duplicate_old_last_growth_torsion>  (286) 
(9, 10, 11, 12)

>  <global_duplicate_old_protected_ring_attachments>  (286) 
3,1,0,2|1,0,2;4,5,0,2|5,0,2;9,8,7,2|8,7,2;11,12,7,2|12,7,2

$$$$

     RDKit          3D

 15 16  0  0  0  0  0  0  0  0999 V2000
  -27.6720   -8.0530  -30.6420 C   0  0  0  0  0  0  0  0  0  0  0  0
  -27.6300   -7.3350  -31.8010 N   0  0  0  0  0  0  0  0  0  0  0  0
  -27.3160   -9.5120  -30.6410 N   0  0  0  0  0  0  0  0  0  0  0  0
  -27.9570   -6.0600  -31.5230 C   0  0  0  0  0  0  0  0  0  0  0  0
  -28.1990   -6.0020  -30.1840 N   0  0  0  0  0  0  0  0  0  0  0  0
  -28.0280   -7.2030  -29.6600 N   0  0  0  0  0  0  0  0  0  0  0  0
  -27.9100   -7.7170  -28.2690 C   0  0  0  0  0  0  0  0  0  0  0  0
  -28.0530  -10.5230  -30.6500 C   0  0  2  0  0  0  0  0  0  0  0  0
  -28.0810  -11.5760  -31.7690 C   0  0  0  0  0  0  0  0  0  0  0  0
  -28.3320  -12.8920  -31.0920 C   0  0  0  0  0  0  0  0  0  0  0  0
  -29.6530  -12.8100  -30.3650 C   0  0  0  0  0  0  0  0  0  0  0  0
  -29.6480  -11.8080  -29.4070 O   0  0  0  0  0  0  0  0  0  0  0  0
  -29.4110  -10.5520  -29.9460 C   0  0  0  0  0  0  0  0  0  0  0  0
  -27.6960  -13.8090  -31.3830 O   0  0  0  0  0  0  0  0  0  0  0  0
  -28.0380   -4.9170  -32.5030 C   0  0  0  0  0  0  0  0  0  0  0  0
  1  2  2  0
  1  3  1  0
  1  6  1  0
  2  4  1  0
  8  3  1  6
  4 15  1  0
  4  5  2  0
  5  6  1  0
  6  7  1  0
  8  9  1  0
  8 13  1  0
  9 10  1  0
 10 14  2  0
 10 11  1  0
 11 12  1  0
 12 13  1  0
M  END
>  <name>  (287) 
Car Nac Nd0 Car Nac Nac Cs3 C3r C3r C2r C3r O_a C3r .=O Cs3

>  <indices>  (287) 
[0, 1, 2]

>  <tasks>  (287) 
probe_placing close_aromatic_ring close_aromatic_ring close_aromatic_ring ring_built build_to_Nac build_to_Nd0 close_aliphatic_ring close_aliphatic_ring close_aliphatic_ring close_aliphatic_ring close_aliphatic_ring build_DB_to_Cs2

>  <prot_clashes>  (287) 
8

>  <NBS phar>  (287) 
0.26000000000000006

>  <NBS_non-phar>  (287) 
0.4408704439798991

>  <NBS>  (287) 
0.7008704439798992

>  <source_stage>  (287) 
scored

>  <source_iter>  (287) 
12

>  <source_parent_mol>  (287) 
1

>  <source_scenario>  (287) 
1 2 3 1 0 7 0 9 3 4 0 1

>  <source_rank_in_scored_call>  (287) 
42

>  <source_current_task>  (287) 
no_task

>  <scenario>  (287) 
1 2 3 1 0 7 0 9 3 4 0

>  <protected_ring_attachments>  (287) 
3,1,0,2|1,0,2;4,5,0,2|5,0,2;9,8,7,2|8,7,2;11,12,7,2|12,7,2

>  <current_task>  (287) 
no_task

>  <rotatable_bond_torsions>  (287) 
1,0,2,7;0,2,7,8

>  <reason_to_skip>  (287) 
global_duplicate

>  <global_duplicate_rmsd>  (287) 
0.0

>  <global_duplicate_old_source_iter>  (287) 
10

>  <global_duplicate_old_source_parent_mol>  (287) 
4

>  <global_duplicate_old_index>  (287) 
NA

>  <global_duplicate_rotatable_bond_torsions>  (287) 
1,0,2,7;0,2,7,8

>  <global_duplicate_old_rotatable_bond_torsions>  (287) 
1,0,2,7;0,2,7,8

>  <global_duplicate_last_growth_torsion>  (287) 
(9, 10, 11, 12)

>  <global_duplicate_protected_ring_attachments>  (287) 
3,1,0,2|1,0,2;4,5,0,2|5,0,2;9,8,7,2|8,7,2;11,12,7,2|12,7,2

>  <global_duplicate_old_last_growth_torsion>  (287) 
(9, 10, 11, 12)

>  <global_duplicate_old_protected_ring_attachments>  (287) 
3,1,0,2|1,0,2;4,5,0,2|5,0,2;9,8,7,2|8,7,2;11,12,7,2|12,7,2

$$$$

     RDKit          3D

 15 16  0  0  0  0  0  0  0  0999 V2000
  -27.6730   -7.2920  -31.3030 C   0  0  0  0  0  0  0  0  0  0  0  0
  -27.6890   -6.7950  -32.5730 N   0  0  0  0  0  0  0  0  0  0  0  0
  -27.3190   -8.7300  -31.0560 N   0  0  0  0  0  0  0  0  0  0  0  0
  -27.9990   -5.4880  -32.5150 C   0  0  0  0  0  0  0  0  0  0  0  0
  -28.1730   -5.1860  -31.1980 N   0  0  0  0  0  0  0  0  0  0  0  0
  -27.9760   -6.2750  -30.4740 N   0  0  0  0  0  0  0  0  0  0  0  0
  -27.7890   -6.5300  -29.0210 C   0  0  0  0  0  0  0  0  0  0  0  0
  -28.0570   -9.7180  -30.8450 C   0  0  2  0  0  0  0  0  0  0  0  0
  -28.1430  -10.9560  -31.7530 C   0  0  0  0  0  0  0  0  0  0  0  0
  -28.3620  -12.1250  -30.8370 C   0  0  0  0  0  0  0  0  0  0  0  0
  -29.6440  -11.8990  -30.0730 C   0  0  0  0  0  0  0  0  0  0  0  0
  -29.5890  -10.7410  -29.3130 O   0  0  0  0  0  0  0  0  0  0  0  0
  -29.3780   -9.6060  -30.0810 C   0  0  0  0  0  0  0  0  0  0  0  0
  -27.7430  -13.0860  -30.9890 O   0  0  0  0  0  0  0  0  0  0  0  0
  -29.1870   -6.3350  -28.3630 C   0  0  0  0  0  0  0  0  0  0  0  0
  1  2  2  0
  1  3  1  0
  1  6  1  0
  2  4  1  0
  8  3  1  6
  4  5  2  0
  5  6  1  0
  6  7  1  0
  8  9  1  0
  8 13  1  0
  9 10  1  0
 10 14  2  0
 10 11  1  0
 11 12  1  0
 12 13  1  0
  7 15  1  0
M  END
>  <name>  (288) 
Car Nac Nd0 Car Nac Nac Cs3 C3r C3r C2r C3r O_a C3r .=O Cs3

>  <indices>  (288) 
[0, 1, 2]

>  <tasks>  (288) 
probe_placing close_aromatic_ring close_aromatic_ring close_aromatic_ring ring_built build_to_Nac build_to_Nd0 close_aliphatic_ring close_aliphatic_ring close_aliphatic_ring close_aliphatic_ring close_aliphatic_ring build_DB_to_Cs2

>  <prot_clashes>  (288) 
10

>  <NBS phar>  (288) 
0.24000000000000005

>  <NBS_non-phar>  (288) 
0.3671286900838216

>  <NBS>  (288) 
0.6071286900838216

>  <source_stage>  (288) 
scored

>  <source_iter>  (288) 
12

>  <source_parent_mol>  (288) 
1

>  <source_scenario>  (288) 
1 2 3 1 0 7 0 9 3 4 0 1

>  <source_rank_in_scored_call>  (288) 
101

>  <source_current_task>  (288) 
no_task

>  <scenario>  (288) 
1 2 3 1 0 7 0 9 3 4 0

>  <protected_ring_attachments>  (288) 
3,1,0,2|1,0,2;4,5,0,2|5,0,2;9,8,7,2|8,7,2;11,12,7,2|12,7,2

>  <current_task>  (288) 
no_task

>  <rotatable_bond_torsions>  (288) 
1,0,2,7;0,2,7,8

>  <reason_to_skip>  (288) 
global_duplicate

>  <global_duplicate_rmsd>  (288) 
0.0

>  <global_duplicate_old_source_iter>  (288) 
10

>  <global_duplicate_old_source_parent_mol>  (288) 
4

>  <global_duplicate_old_index>  (288) 
NA

>  <global_duplicate_rotatable_bond_torsions>  (288) 
1,0,2,7;0,2,7,8

>  <global_duplicate_old_rotatable_bond_torsions>  (288) 
1,0,2,7;0,2,7,8

>  <global_duplicate_last_growth_torsion>  (288) 
(9, 10, 11, 12)

>  <global_duplicate_protected_ring_attachments>  (288) 
3,1,0,2|1,0,2;4,5,0,2|5,0,2;9,8,7,2|8,7,2;11,12,7,2|12,7,2

>  <global_duplicate_old_last_growth_torsion>  (288) 
(9, 10, 11, 12)

>  <global_duplicate_old_protected_ring_attachments>  (288) 
3,1,0,2|1,0,2;4,5,0,2|5,0,2;9,8,7,2|8,7,2;11,12,7,2|12,7,2

$$$$

     RDKit          3D

 15 16  0  0  0  0  0  0  0  0999 V2000
  -27.8160   -7.1910  -31.2180 C   0  0  0  0  0  0  0  0  0  0  0  0
  -27.7000   -6.7730  -32.5110 N   0  0  0  0  0  0  0  0  0  0  0  0
  -27.4300   -8.5920  -30.8370 N   0  0  0  0  0  0  0  0  0  0  0  0
  -28.0740   -5.4820  -32.5750 C   0  0  0  0  0  0  0  0  0  0  0  0
  -28.4190   -5.1130  -31.3100 N   0  0  0  0  0  0  0  0  0  0  0  0
  -28.2630   -6.1440  -30.4990 N   0  0  0  0  0  0  0  0  0  0  0  0
  -28.2410   -6.3020  -29.0200 C   0  0  0  0  0  0  0  0  0  0  0  0
  -28.1420   -9.6030  -30.6510 C   0  0  2  0  0  0  0  0  0  0  0  0
  -28.0620  -10.8950  -31.4800 C   0  0  0  0  0  0  0  0  0  0  0  0
  -28.3360  -12.0180  -30.5210 C   0  0  0  0  0  0  0  0  0  0  0  0
  -29.7100  -11.8150  -29.9300 C   0  0  0  0  0  0  0  0  0  0  0  0
  -29.8000  -10.6120  -29.2460 O   0  0  0  0  0  0  0  0  0  0  0  0
  -29.5490   -9.5150  -30.0570 C   0  0  0  0  0  0  0  0  0  0  0  0
  -27.6610  -12.9520  -30.5360 O   0  0  0  0  0  0  0  0  0  0  0  0
  -28.0530   -4.8480  -28.3980 C   0  0  0  0  0  0  0  0  0  0  0  0
  1  2  2  0
  1  3  1  0
  1  6  1  0
  2  4  1  0
  8  3  1  6
  4  5  2  0
  5  6  1  0
  6  7  1  0
  8  9  1  0
  8 13  1  0
  9 10  1  0
 10 14  2  0
 10 11  1  0
 11 12  1  0
 12 13  1  0
  7 15  1  0
M  END
>  <name>  (289) 
Car Nac Nd0 Car Nac Nac Cs3 C3r C3r C2r C3r O_a C3r .=O Cs3

>  <indices>  (289) 
[0, 1, 2]

>  <tasks>  (289) 
probe_placing close_aromatic_ring close_aromatic_ring close_aromatic_ring ring_built build_to_Nac build_to_Nd0 close_aliphatic_ring close_aliphatic_ring close_aliphatic_ring close_aliphatic_ring close_aliphatic_ring build_DB_to_Cs2

>  <prot_clashes>  (289) 
11

>  <NBS phar>  (289) 
0.1

>  <NBS_non-phar>  (289) 
0.45683358510335287

>  <NBS>  (289) 
0.5568335851033529

>  <source_stage>  (289) 
scored

>  <source_iter>  (289) 
12

>  <source_parent_mol>  (289) 
1

>  <source_scenario>  (289) 
1 2 3 1 0 7 0 9 3 4 0 1

>  <source_rank_in_scored_call>  (289) 
123

>  <source_current_task>  (289) 
no_task

>  <scenario>  (289) 
1 2 3 1 0 7 0 9 3 4 0

>  <protected_ring_attachments>  (289) 
3,1,0,2|1,0,2;4,5,0,2|5,0,2;9,8,7,2|8,7,2;11,12,7,2|12,7,2

>  <current_task>  (289) 
no_task

>  <rotatable_bond_torsions>  (289) 
1,0,2,7;0,2,7,8

>  <reason_to_skip>  (289) 
global_duplicate

>  <global_duplicate_rmsd>  (289) 
0.0

>  <global_duplicate_old_source_iter>  (289) 
10

>  <global_duplicate_old_source_parent_mol>  (289) 
4

>  <global_duplicate_old_index>  (289) 
NA

>  <global_duplicate_rotatable_bond_torsions>  (289) 
1,0,2,7;0,2,7,8

>  <global_duplicate_old_rotatable_bond_torsions>  (289) 
1,0,2,7;0,2,7,8

>  <global_duplicate_last_growth_torsion>  (289) 
(9, 10, 11, 12)

>  <global_duplicate_protected_ring_attachments>  (289) 
3,1,0,2|1,0,2;4,5,0,2|5,0,2;9,8,7,2|8,7,2;11,12,7,2|12,7,2

>  <global_duplicate_old_last_growth_torsion>  (289) 
(9, 10, 11, 12)

>  <global_duplicate_old_protected_ring_attachments>  (289) 
3,1,0,2|1,0,2;4,5,0,2|5,0,2;9,8,7,2|8,7,2;11,12,7,2|12,7,2

$$$$

     RDKit          3D

 15 16  0  0  0  0  0  0  0  0999 V2000
  -27.8200   -7.1220  -31.1730 C   0  0  0  0  0  0  0  0  0  0  0  0
  -27.7020   -6.8100  -32.4960 N   0  0  0  0  0  0  0  0  0  0  0  0
  -27.4450   -8.4910  -30.6800 N   0  0  0  0  0  0  0  0  0  0  0  0
  -28.0650   -5.5270  -32.6640 C   0  0  0  0  0  0  0  0  0  0  0  0
  -28.4060   -5.0530  -31.4330 N   0  0  0  0  0  0  0  0  0  0  0  0
  -28.2570   -6.0170  -30.5410 N   0  0  0  0  0  0  0  0  0  0  0  0
  -28.2360   -6.0550  -29.0540 C   0  0  0  0  0  0  0  0  0  0  0  0
  -28.1650   -9.4780  -30.4130 C   0  0  2  0  0  0  0  0  0  0  0  0
  -28.0960  -10.8330  -31.1340 C   0  0  0  0  0  0  0  0  0  0  0  0
  -28.3790  -11.8720  -30.0880 C   0  0  0  0  0  0  0  0  0  0  0  0
  -29.7510  -11.6110  -29.5150 C   0  0  0  0  0  0  0  0  0  0  0  0
  -29.8300  -10.3560  -28.9310 O   0  0  0  0  0  0  0  0  0  0  0  0
  -29.5710   -9.3300  -29.8270 C   0  0  0  0  0  0  0  0  0  0  0  0
  -27.7110  -12.8100  -30.0280 O   0  0  0  0  0  0  0  0  0  0  0  0
  -28.2120   -4.6630  -28.4170 C   0  0  0  0  0  0  0  0  0  0  0  0
  1  2  2  0
  1  3  1  0
  1  6  1  0
  2  4  1  0
  8  3  1  6
  4  5  2  0
  5  6  1  0
  6  7  1  0
  8  9  1  0
  8 13  1  0
  9 10  1  0
 10 14  2  0
 10 11  1  0
 11 12  1  0
 12 13  1  0
  7 15  1  0
M  END
>  <name>  (290) 
Car Nac Nd0 Car Nac Nac Cs3 C3r C3r C2r C3r O_a C3r .=O Cs3

>  <indices>  (290) 
[0, 1, 2]

>  <tasks>  (290) 
probe_placing close_aromatic_ring close_aromatic_ring close_aromatic_ring ring_built build_to_Nac build_to_Nd0 close_aliphatic_ring close_aliphatic_ring close_aliphatic_ring close_aliphatic_ring close_aliphatic_ring build_DB_to_Cs2

>  <prot_clashes>  (290) 
8

>  <NBS phar>  (290) 
0.1

>  <NBS_non-phar>  (290) 
0.455989138285319

>  <NBS>  (290) 
0.555989138285319

>  <source_stage>  (290) 
scored

>  <source_iter>  (290) 
12

>  <source_parent_mol>  (290) 
1

>  <source_scenario>  (290) 
1 2 3 1 0 7 0 9 3 4 0 1

>  <source_rank_in_scored_call>  (290) 
124

>  <source_current_task>  (290) 
no_task

>  <scenario>  (290) 
1 2 3 1 0 7 0 9 3 4 0

>  <protected_ring_attachments>  (290) 
3,1,0,2|1,0,2;4,5,0,2|5,0,2;9,8,7,2|8,7,2;11,12,7,2|12,7,2

>  <current_task>  (290) 
no_task

>  <rotatable_bond_torsions>  (290) 
1,0,2,7;0,2,7,8

>  <reason_to_skip>  (290) 
global_duplicate

>  <global_duplicate_rmsd>  (290) 
0.0

>  <global_duplicate_old_source_iter>  (290) 
10

>  <global_duplicate_old_source_parent_mol>  (290) 
4

>  <global_duplicate_old_index>  (290) 
NA

>  <global_duplicate_rotatable_bond_torsions>  (290) 
1,0,2,7;0,2,7,8

>  <global_duplicate_old_rotatable_bond_torsions>  (290) 
1,0,2,7;0,2,7,8

>  <global_duplicate_last_growth_torsion>  (290) 
(9, 10, 11, 12)

>  <global_duplicate_protected_ring_attachments>  (290) 
3,1,0,2|1,0,2;4,5,0,2|5,0,2;9,8,7,2|8,7,2;11,12,7,2|12,7,2

>  <global_duplicate_old_last_growth_torsion>  (290) 
(9, 10, 11, 12)

>  <global_duplicate_old_protected_ring_attachments>  (290) 
3,1,0,2|1,0,2;4,5,0,2|5,0,2;9,8,7,2|8,7,2;11,12,7,2|12,7,2

$$$$

     RDKit          3D

 15 16  0  0  0  0  0  0  0  0999 V2000
  -27.8130   -7.1730  -31.2170 C   0  0  0  0  0  0  0  0  0  0  0  0
  -27.6890   -6.7860  -32.5190 N   0  0  0  0  0  0  0  0  0  0  0  0
  -27.4360   -8.5660  -30.8010 N   0  0  0  0  0  0  0  0  0  0  0  0
  -28.0570   -5.4960  -32.6160 C   0  0  0  0  0  0  0  0  0  0  0  0
  -28.4080   -5.0950  -31.3620 N   0  0  0  0  0  0  0  0  0  0  0  0
  -28.2600   -6.1070  -30.5260 N   0  0  0  0  0  0  0  0  0  0  0  0
  -28.2470   -6.2300  -29.0440 C   0  0  0  0  0  0  0  0  0  0  0  0
  -28.1530   -9.5690  -30.5940 C   0  0  2  0  0  0  0  0  0  0  0  0
  -28.0740  -10.8810  -31.3910 C   0  0  0  0  0  0  0  0  0  0  0  0
  -28.3590  -11.9800  -30.4080 C   0  0  0  0  0  0  0  0  0  0  0  0
  -29.7350  -11.7560  -29.8290 C   0  0  0  0  0  0  0  0  0  0  0  0
  -29.8230  -10.5370  -29.1750 O   0  0  0  0  0  0  0  0  0  0  0  0
  -29.5630   -9.4610  -30.0100 C   0  0  0  0  0  0  0  0  0  0  0  0
  -27.6870  -12.9170  -30.3960 O   0  0  0  0  0  0  0  0  0  0  0  0
  -29.1940   -5.2500  -28.3850 C   0  0  0  0  0  0  0  0  0  0  0  0
  1  2  2  0
  1  3  1  0
  1  6  1  0
  2  4  1  0
  8  3  1  6
  4  5  2  0
  5  6  1  0
  6  7  1  0
  8  9  1  0
  8 13  1  0
  9 10  1  0
 10 14  2  0
 10 11  1  0
 11 12  1  0
 12 13  1  0
  7 15  1  0
M  END
>  <name>  (291) 
Car Nac Nd0 Car Nac Nac Cs3 C3r C3r C2r C3r O_a C3r .=O Cs3

>  <indices>  (291) 
[0, 1, 2]

>  <tasks>  (291) 
probe_placing close_aromatic_ring close_aromatic_ring close_aromatic_ring ring_built build_to_Nac build_to_Nd0 close_aliphatic_ring close_aliphatic_ring close_aliphatic_ring close_aliphatic_ring close_aliphatic_ring build_DB_to_Cs2

>  <prot_clashes>  (291) 
9

>  <NBS phar>  (291) 
0.12

>  <NBS_non-phar>  (291) 
0.40429642995198567

>  <NBS>  (291) 
0.5242964299519857

>  <source_stage>  (291) 
scored

>  <source_iter>  (291) 
12

>  <source_parent_mol>  (291) 
1

>  <source_scenario>  (291) 
1 2 3 1 0 7 0 9 3 4 0 1

>  <source_rank_in_scored_call>  (291) 
137

>  <source_current_task>  (291) 
no_task

>  <scenario>  (291) 
1 2 3 1 0 7 0 9 3 4 0

>  <protected_ring_attachments>  (291) 
3,1,0,2|1,0,2;4,5,0,2|5,0,2;9,8,7,2|8,7,2;11,12,7,2|12,7,2

>  <current_task>  (291) 
no_task

>  <rotatable_bond_torsions>  (291) 
1,0,2,7;0,2,7,8

>  <reason_to_skip>  (291) 
global_duplicate

>  <global_duplicate_rmsd>  (291) 
0.0

>  <global_duplicate_old_source_iter>  (291) 
10

>  <global_duplicate_old_source_parent_mol>  (291) 
4

>  <global_duplicate_old_index>  (291) 
NA

>  <global_duplicate_rotatable_bond_torsions>  (291) 
1,0,2,7;0,2,7,8

>  <global_duplicate_old_rotatable_bond_torsions>  (291) 
1,0,2,7;0,2,7,8

>  <global_duplicate_last_growth_torsion>  (291) 
(9, 10, 11, 12)

>  <global_duplicate_protected_ring_attachments>  (291) 
3,1,0,2|1,0,2;4,5,0,2|5,0,2;9,8,7,2|8,7,2;11,12,7,2|12,7,2

>  <global_duplicate_old_last_growth_torsion>  (291) 
(9, 10, 11, 12)

>  <global_duplicate_old_protected_ring_attachments>  (291) 
3,1,0,2|1,0,2;4,5,0,2|5,0,2;9,8,7,2|8,7,2;11,12,7,2|12,7,2

$$$$

     RDKit          3D

 15 16  0  0  0  0  0  0  0  0999 V2000
  -27.8200   -6.9420  -30.8740 C   0  0  0  0  0  0  0  0  0  0  0  0
  -27.6770   -6.8590  -32.2290 N   0  0  0  0  0  0  0  0  0  0  0  0
  -27.4390   -8.2010  -30.1480 N   0  0  0  0  0  0  0  0  0  0  0  0
  -28.0520   -5.6280  -32.6200 C   0  0  0  0  0  0  0  0  0  0  0  0
  -28.4270   -4.9580  -31.4950 N   0  0  0  0  0  0  0  0  0  0  0  0
  -28.2860   -5.7530  -30.4500 N   0  0  0  0  0  0  0  0  0  0  0  0
  -28.2970   -5.5360  -28.9780 C   0  0  0  0  0  0  0  0  0  0  0  0
  -28.1520   -9.1390  -29.7300 C   0  0  2  0  0  0  0  0  0  0  0  0
  -28.0500  -10.5960  -30.2080 C   0  0  0  0  0  0  0  0  0  0  0  0
  -28.3430  -11.4470  -29.0060 C   0  0  0  0  0  0  0  0  0  0  0  0
  -29.7300  -11.1130  -28.5130 C   0  0  0  0  0  0  0  0  0  0  0  0
  -29.8380   -9.7790  -28.1530 O   0  0  0  0  0  0  0  0  0  0  0  0
  -29.5730   -8.9170  -29.2060 C   0  0  0  0  0  0  0  0  0  0  0  0
  -27.6640  -12.3490  -28.7730 O   0  0  0  0  0  0  0  0  0  0  0  0
  -27.7720   -4.0810  -28.4670 C   0  0  0  0  0  0  0  0  0  0  0  0
  1  2  2  0
  1  6  1  0
  1  3  1  0
  2  4  1  0
  8  3  1  6
  4  5  2  0
  5  6  1  0
  6  7  1  0
  8  9  1  0
  8 13  1  0
  9 10  1  0
 10 14  2  0
 10 11  1  0
 11 12  1  0
 12 13  1  0
  7 15  1  0
M  END
>  <name>  (292) 
Car Nac Nd0 Car Nac Nac Cs3 C3r C3r C2r C3r O_a C3r .=O Cs3

>  <indices>  (292) 
[0, 1, 2]

>  <tasks>  (292) 
probe_placing close_aromatic_ring close_aromatic_ring close_aromatic_ring ring_built build_to_Nac build_to_Nd0 close_aliphatic_ring close_aliphatic_ring close_aliphatic_ring close_aliphatic_ring close_aliphatic_ring build_DB_to_Cs2

>  <prot_clashes>  (292) 
8

>  <NBS phar>  (292) 
0.1

>  <NBS_non-phar>  (292) 
0.41145915985107423

>  <NBS>  (292) 
0.5114591598510743

>  <source_stage>  (292) 
scored

>  <source_iter>  (292) 
12

>  <source_parent_mol>  (292) 
1

>  <source_scenario>  (292) 
1 2 3 1 0 7 0 9 3 4 0 1

>  <source_rank_in_scored_call>  (292) 
140

>  <source_current_task>  (292) 
no_task

>  <scenario>  (292) 
1 2 3 1 0 7 0 9 3 4 0

>  <protected_ring_attachments>  (292) 
3,1,0,2|1,0,2;4,5,0,2|5,0,2;9,8,7,2|8,7,2;11,12,7,2|12,7,2

>  <current_task>  (292) 
no_task

>  <rotatable_bond_torsions>  (292) 
1,0,2,7;0,2,7,8

>  <reason_to_skip>  (292) 
global_duplicate

>  <global_duplicate_rmsd>  (292) 
0.0

>  <global_duplicate_old_source_iter>  (292) 
10

>  <global_duplicate_old_source_parent_mol>  (292) 
4

>  <global_duplicate_old_index>  (292) 
NA

>  <global_duplicate_rotatable_bond_torsions>  (292) 
1,0,2,7;0,2,7,8

>  <global_duplicate_old_rotatable_bond_torsions>  (292) 
1,0,2,7;0,2,7,8

>  <global_duplicate_last_growth_torsion>  (292) 
(9, 10, 11, 12)

>  <global_duplicate_protected_ring_attachments>  (292) 
3,1,0,2|1,0,2;4,5,0,2|5,0,2;9,8,7,2|8,7,2;11,12,7,2|12,7,2

>  <global_duplicate_old_last_growth_torsion>  (292) 
(9, 10, 11, 12)

>  <global_duplicate_old_protected_ring_attachments>  (292) 
3,1,0,2|1,0,2;4,5,0,2|5,0,2;9,8,7,2|8,7,2;11,12,7,2|12,7,2

$$$$

     RDKit          3D

 12 13  0  0  0  0  0  0  0  0999 V2000
  -27.7730   -7.1680  -31.1410 C   0  0  0  0  0  0  0  0  0  0  0  0
  -27.6880   -6.7650  -32.4410 N   0  0  0  0  0  0  0  0  0  0  0  0
  -27.3670   -8.5590  -30.7460 N   0  0  0  0  0  0  0  0  0  0  0  0
  -28.0760   -5.4810  -32.5150 C   0  0  0  0  0  0  0  0  0  0  0  0
  -28.4000   -5.0980  -31.2490 N   0  0  0  0  0  0  0  0  0  0  0  0
  -28.2180   -6.1160  -30.4260 N   0  0  0  0  0  0  0  0  0  0  0  0
  -28.1660   -6.2540  -28.9470 C   0  0  0  0  0  0  0  0  0  0  0  0
  -28.5590   -9.4850  -30.5410 C   0  0  2  0  0  0  0  0  0  0  0  0
  -28.0640  -10.5300  -29.5670 C   0  0  0  0  0  0  0  0  0  0  0  0
  -29.0120  -11.5280  -29.5190 O   0  0  0  0  0  0  0  0  0  0  0  0
  -29.9250  -11.3920  -30.5230 C   0  0  0  0  0  0  0  0  0  0  0  0
  -29.3980  -10.3180  -31.4660 C   0  0  0  0  0  0  0  0  0  0  0  0
  1  2  2  0
  1  3  1  0
  1  6  1  0
  2  4  1  0
  8  3  1  6
  4  5  2  0
  5  6  1  0
  6  7  1  0
  8 12  1  0
  8  9  1  0
  9 10  1  0
 10 11  1  0
 11 12  1  0
M  END
>  <name>  (293) 
Car Nac Nd0 Car Nac Nac Cs3 C3r C3r O_a C3r C3r

>  <indices>  (293) 
[0, 1, 2]

>  <tasks>  (293) 
probe_placing close_aromatic_ring close_aromatic_ring close_aromatic_ring ring_built build_to_Nac build_to_Nd0 close_aliphatic_ring close_aliphatic_ring close_aliphatic_ring

>  <prot_clashes>  (293) 
7

>  <NBS phar>  (293) 
0.1

>  <NBS_non-phar>  (293) 
0.383463978767395

>  <NBS>  (293) 
0.483463978767395

>  <source_stage>  (293) 
scored

>  <source_iter>  (293) 
9

>  <source_parent_mol>  (293) 
3

>  <source_scenario>  (293) 
1 2 3 1 0 7 1 0 3

>  <source_rank_in_scored_call>  (293) 
1

>  <source_current_task>  (293) 
close_aliphatic_ring

>  <scenario>  (293) 
1 2 3 1 0 7 1 0

>  <protected_ring_attachments>  (293) 
3,1,0,2|1,0,2;4,5,0,2|5,0,2

>  <current_task>  (293) 
no_task

>  <rotatable_bond_torsions>  (293) 
1,0,2,7;0,2,7,8;2,7,8,9;7,8,9,10

$$$$

     RDKit          3D

 13 14  0  0  0  0  0  0  0  0999 V2000
  -27.8670   -6.5890  -30.5470 C   0  0  0  0  0  0  0  0  0  0  0  0
  -27.3310   -6.6070  -31.8010 N   0  0  0  0  0  0  0  0  0  0  0  0
  -27.5630   -7.6900  -29.5720 N   0  0  0  0  0  0  0  0  0  0  0  0
  -27.7310   -5.5020  -32.4510 C   0  0  0  0  0  0  0  0  0  0  0  0
  -28.5180   -4.8030  -31.5860 N   0  0  0  0  0  0  0  0  0  0  0  0
  -28.5980   -5.4610  -30.4430 N   0  0  0  0  0  0  0  0  0  0  0  0
  -29.0860   -5.1150  -29.0820 C   0  0  0  0  0  0  0  0  0  0  0  0
  -28.6970   -8.6990  -29.4500 C   0  0  2  0  0  0  0  0  0  0  0  0
  -28.5400   -9.2800  -28.0630 C   0  0  0  0  0  0  0  0  0  0  0  0
  -29.3860  -10.3630  -27.9740 O   0  0  0  0  0  0  0  0  0  0  0  0
  -29.8720  -10.7140  -29.1990 C   0  0  0  0  0  0  0  0  0  0  0  0
  -29.0920   -9.9160  -30.2360 C   0  0  0  0  0  0  0  0  0  0  0  0
  -28.6230   -3.7050  -28.5520 C   0  0  0  0  0  0  0  0  0  0  0  0
  1  2  2  0
  1  6  1  0
  1  3  1  0
  2  4  1  0
  8  3  1  6
  4  5  2  0
  5  6  1  0
  6  7  1  0
  8 12  1  0
  8  9  1  0
  9 10  1  0
 10 11  1  0
 11 12  1  0
  7 13  1  0
M  END
>  <name>  (294) 
Car Nac Nd0 Car Nac Nac Cs3 C3r C3r O_a C3r C3r Cs3

>  <indices>  (294) 
[0, 1, 2]

>  <tasks>  (294) 
probe_placing close_aromatic_ring close_aromatic_ring close_aromatic_ring ring_built build_to_Nac build_to_Nd0 close_aliphatic_ring close_aliphatic_ring close_aliphatic_ring close_aliphatic_ring

>  <prot_clashes>  (294) 
4

>  <NBS phar>  (294) 
0.15999999999999998

>  <NBS_non-phar>  (294) 
0.4399211590106671

>  <NBS>  (294) 
0.599921159010667

>  <source_stage>  (294) 
scored

>  <source_iter>  (294) 
10

>  <source_parent_mol>  (294) 
1

>  <source_scenario>  (294) 
1 2 3 1 0 7 1 0 3 1

>  <source_rank_in_scored_call>  (294) 
7

>  <source_current_task>  (294) 
no_task

>  <scenario>  (294) 
1 2 3 1 0 7 1 0 3

>  <protected_ring_attachments>  (294) 
3,1,0,2|1,0,2;4,5,0,2|5,0,2;9,8,7,2|8,7,2;10,11,7,2|11,7,2

>  <current_task>  (294) 
no_task

>  <rotatable_bond_torsions>  (294) 
1,0,2,7;0,2,7,8

$$$$

     RDKit          3D

 13 14  0  0  0  0  0  0  0  0999 V2000
  -27.6450   -7.2170  -31.2210 C   0  0  0  0  0  0  0  0  0  0  0  0
  -27.7100   -6.7860  -32.5130 N   0  0  0  0  0  0  0  0  0  0  0  0
  -27.2720   -8.6380  -30.9090 N   0  0  0  0  0  0  0  0  0  0  0  0
  -28.0290   -5.4810  -32.5110 C   0  0  0  0  0  0  0  0  0  0  0  0
  -28.1580   -5.1130  -31.2070 N   0  0  0  0  0  0  0  0  0  0  0  0
  -27.9280   -6.1600  -30.4340 N   0  0  0  0  0  0  0  0  0  0  0  0
  -27.6880   -6.3390  -28.9780 C   0  0  0  0  0  0  0  0  0  0  0  0
  -28.4780   -9.5010  -30.5620 C   0  0  2  0  0  0  0  0  0  0  0  0
  -27.9200  -10.5970  -29.6820 C   0  0  0  0  0  0  0  0  0  0  0  0
  -28.9100  -11.5410  -29.5250 O   0  0  0  0  0  0  0  0  0  0  0  0
  -29.9390  -11.3290  -30.3950 C   0  0  0  0  0  0  0  0  0  0  0  0
  -29.4800  -10.2630  -31.3810 C   0  0  0  0  0  0  0  0  0  0  0  0
  -28.9740   -6.8720  -28.3960 C   0  0  0  0  0  0  0  0  0  0  0  0
  1  2  2  0
  1  3  1  0
  1  6  1  0
  2  4  1  0
  8  3  1  6
  4  5  2  0
  5  6  1  0
  6  7  1  0
  8 12  1  0
  8  9  1  0
  9 10  1  0
 10 11  1  0
 11 12  1  0
  7 13  1  0
M  END
>  <name>  (295) 
Car Nac Nd0 Car Nac Nac Cs3 C3r C3r O_a C3r C3r Cs3

>  <indices>  (295) 
[0, 1, 2]

>  <tasks>  (295) 
probe_placing close_aromatic_ring close_aromatic_ring close_aromatic_ring ring_built build_to_Nac build_to_Nd0 close_aliphatic_ring close_aliphatic_ring close_aliphatic_ring close_aliphatic_ring

>  <prot_clashes>  (295) 
10

>  <NBS phar>  (295) 
0.12

>  <NBS_non-phar>  (295) 
0.3900877512418307

>  <NBS>  (295) 
0.5100877512418307

>  <source_stage>  (295) 
scored

>  <source_iter>  (295) 
10

>  <source_parent_mol>  (295) 
1

>  <source_scenario>  (295) 
1 2 3 1 0 7 1 0 3 1

>  <source_rank_in_scored_call>  (295) 
72

>  <source_current_task>  (295) 
no_task

>  <scenario>  (295) 
1 2 3 1 0 7 1 0 3

>  <protected_ring_attachments>  (295) 
3,1,0,2|1,0,2;4,5,0,2|5,0,2;9,8,7,2|8,7,2;10,11,7,2|11,7,2

>  <current_task>  (295) 
no_task

>  <rotatable_bond_torsions>  (295) 
1,0,2,7;0,2,7,8

$$$$

     RDKit          3D

 13 14  0  0  0  0  0  0  0  0999 V2000
  -27.9480   -7.1430  -31.0790 C   0  0  0  0  0  0  0  0  0  0  0  0
  -27.6110   -6.8540  -32.3690 N   0  0  0  0  0  0  0  0  0  0  0  0
  -27.5260   -8.4420  -30.4540 N   0  0  0  0  0  0  0  0  0  0  0  0
  -28.0770   -5.6290  -32.6660 C   0  0  0  0  0  0  0  0  0  0  0  0
  -28.7030   -5.1680  -31.5480 N   0  0  0  0  0  0  0  0  0  0  0  0
  -28.6240   -6.0820  -30.5960 N   0  0  0  0  0  0  0  0  0  0  0  0
  -28.8880   -6.0780  -29.1340 C   0  0  0  0  0  0  0  0  0  0  0  0
  -28.6540   -9.4640  -30.4030 C   0  0  2  0  0  0  0  0  0  0  0  0
  -28.3020  -10.3590  -29.2360 C   0  0  0  0  0  0  0  0  0  0  0  0
  -29.1520  -11.4410  -29.2770 O   0  0  0  0  0  0  0  0  0  0  0  0
  -29.8290  -11.4940  -30.4600 C   0  0  0  0  0  0  0  0  0  0  0  0
  -29.1970  -10.4620  -31.3850 C   0  0  0  0  0  0  0  0  0  0  0  0
  -27.6880   -5.5360  -28.3870 C   0  0  0  0  0  0  0  0  0  0  0  0
  1  2  2  0
  1  6  1  0
  1  3  1  0
  2  4  1  0
  8  3  1  6
  4  5  2  0
  5  6  1  0
  6  7  1  0
  8 12  1  0
  8  9  1  0
  9 10  1  0
 10 11  1  0
 11 12  1  0
  7 13  1  0
M  END
>  <name>  (296) 
Car Nac Nd0 Car Nac Nac Cs3 C3r C3r O_a C3r C3r Cs3

>  <indices>  (296) 
[0, 1, 2]

>  <tasks>  (296) 
probe_placing close_aromatic_ring close_aromatic_ring close_aromatic_ring ring_built build_to_Nac build_to_Nd0 close_aliphatic_ring close_aliphatic_ring close_aliphatic_ring close_aliphatic_ring

>  <prot_clashes>  (296) 
7

>  <NBS phar>  (296) 
0.12

>  <NBS_non-phar>  (296) 
0.3842316407423753

>  <NBS>  (296) 
0.5042316407423753

>  <source_stage>  (296) 
scored

>  <source_iter>  (296) 
10

>  <source_parent_mol>  (296) 
1

>  <source_scenario>  (296) 
1 2 3 1 0 7 1 0 3 1

>  <source_rank_in_scored_call>  (296) 
76

>  <source_current_task>  (296) 
no_task

>  <scenario>  (296) 
1 2 3 1 0 7 1 0 3

>  <protected_ring_attachments>  (296) 
3,1,0,2|1,0,2;4,5,0,2|5,0,2;9,8,7,2|8,7,2;10,11,7,2|11,7,2

>  <current_task>  (296) 
no_task

>  <rotatable_bond_torsions>  (296) 
1,0,2,7;0,2,7,8

$$$$

     RDKit          3D

 13 14  0  0  0  0  0  0  0  0999 V2000
  -27.6730   -7.1870  -31.2120 C   0  0  0  0  0  0  0  0  0  0  0  0
  -27.6880   -6.7830  -32.5150 N   0  0  0  0  0  0  0  0  0  0  0  0
  -27.2930   -8.5950  -30.8550 N   0  0  0  0  0  0  0  0  0  0  0  0
  -28.0260   -5.4830  -32.5540 C   0  0  0  0  0  0  0  0  0  0  0  0
  -28.2200   -5.0920  -31.2640 N   0  0  0  0  0  0  0  0  0  0  0  0
  -28.0080   -6.1190  -30.4610 N   0  0  0  0  0  0  0  0  0  0  0  0
  -27.8300   -6.2650  -28.9920 C   0  0  0  0  0  0  0  0  0  0  0  0
  -28.4990   -9.4710  -30.5440 C   0  0  2  0  0  0  0  0  0  0  0  0
  -27.9640  -10.5390  -29.6180 C   0  0  0  0  0  0  0  0  0  0  0  0
  -28.9450  -11.4970  -29.4860 O   0  0  0  0  0  0  0  0  0  0  0  0
  -29.9380  -11.3190  -30.4040 C   0  0  0  0  0  0  0  0  0  0  0  0
  -29.4520  -10.2640  -31.3900 C   0  0  0  0  0  0  0  0  0  0  0  0
  -29.1880   -6.4310  -28.3660 C   0  0  0  0  0  0  0  0  0  0  0  0
  1  2  2  0
  1  3  1  0
  1  6  1  0
  2  4  1  0
  8  3  1  6
  4  5  2  0
  5  6  1  0
  6  7  1  0
  8 12  1  0
  8  9  1  0
  9 10  1  0
 10 11  1  0
 11 12  1  0
  7 13  1  0
M  END
>  <name>  (297) 
Car Nac Nd0 Car Nac Nac Cs3 C3r C3r O_a C3r C3r Cs3

>  <indices>  (297) 
[0, 1, 2]

>  <tasks>  (297) 
probe_placing close_aromatic_ring close_aromatic_ring close_aromatic_ring ring_built build_to_Nac build_to_Nd0 close_aliphatic_ring close_aliphatic_ring close_aliphatic_ring close_aliphatic_ring

>  <prot_clashes>  (297) 
12

>  <NBS phar>  (297) 
0.12

>  <NBS_non-phar>  (297) 
0.38171133628258336

>  <NBS>  (297) 
0.5017113362825834

>  <source_stage>  (297) 
scored

>  <source_iter>  (297) 
10

>  <source_parent_mol>  (297) 
1

>  <source_scenario>  (297) 
1 2 3 1 0 7 1 0 3 1

>  <source_rank_in_scored_call>  (297) 
84

>  <source_current_task>  (297) 
no_task

>  <scenario>  (297) 
1 2 3 1 0 7 1 0 3

>  <protected_ring_attachments>  (297) 
3,1,0,2|1,0,2;4,5,0,2|5,0,2;9,8,7,2|8,7,2;10,11,7,2|11,7,2

>  <current_task>  (297) 
no_task

>  <rotatable_bond_torsions>  (297) 
1,0,2,7;0,2,7,8

$$$$

     RDKit          3D

 13 14  0  0  0  0  0  0  0  0999 V2000
  -27.7370   -7.0170  -30.8950 C   0  0  0  0  0  0  0  0  0  0  0  0
  -27.4710   -6.7740  -32.2100 N   0  0  0  0  0  0  0  0  0  0  0  0
  -27.3470   -8.3240  -30.2670 N   0  0  0  0  0  0  0  0  0  0  0  0
  -27.8880   -5.5320  -32.5060 C   0  0  0  0  0  0  0  0  0  0  0  0
  -28.4130   -5.0130  -31.3620 N   0  0  0  0  0  0  0  0  0  0  0  0
  -28.3220   -5.9100  -30.3950 N   0  0  0  0  0  0  0  0  0  0  0  0
  -28.4890   -5.8600  -28.9190 C   0  0  0  0  0  0  0  0  0  0  0  0
  -28.5240   -9.2800  -30.1180 C   0  0  2  0  0  0  0  0  0  0  0  0
  -28.1450  -10.1680  -28.9540 C   0  0  0  0  0  0  0  0  0  0  0  0
  -29.0540  -11.2030  -28.9150 O   0  0  0  0  0  0  0  0  0  0  0  0
  -29.8090  -11.2410  -30.0500 C   0  0  0  0  0  0  0  0  0  0  0  0
  -29.1840  -10.2660  -31.0380 C   0  0  0  0  0  0  0  0  0  0  0  0
  -29.5610   -4.8760  -28.5010 C   0  0  0  0  0  0  0  0  0  0  0  0
  1  2  2  0
  1  6  1  0
  1  3  1  0
  2  4  1  0
  8  3  1  6
  4  5  2  0
  5  6  1  0
  6  7  1  0
  8 12  1  0
  8  9  1  0
  9 10  1  0
 10 11  1  0
 11 12  1  0
  7 13  1  0
M  END
>  <name>  (298) 
Car Nac Nd0 Car Nac Nac Cs3 C3r C3r O_a C3r C3r Cs3

>  <indices>  (298) 
[0, 1, 2]

>  <tasks>  (298) 
probe_placing close_aromatic_ring close_aromatic_ring close_aromatic_ring ring_built build_to_Nac build_to_Nd0 close_aliphatic_ring close_aliphatic_ring close_aliphatic_ring close_aliphatic_ring

>  <prot_clashes>  (298) 
6

>  <NBS phar>  (298) 
0.12

>  <NBS_non-phar>  (298) 
0.37310508581308216

>  <NBS>  (298) 
0.49310508581308216

>  <source_stage>  (298) 
scored

>  <source_iter>  (298) 
10

>  <source_parent_mol>  (298) 
1

>  <source_scenario>  (298) 
1 2 3 1 0 7 1 0 3 1

>  <source_rank_in_scored_call>  (298) 
92

>  <source_current_task>  (298) 
no_task

>  <scenario>  (298) 
1 2 3 1 0 7 1 0 3

>  <protected_ring_attachments>  (298) 
3,1,0,2|1,0,2;4,5,0,2|5,0,2;9,8,7,2|8,7,2;10,11,7,2|11,7,2

>  <current_task>  (298) 
no_task

>  <rotatable_bond_torsions>  (298) 
1,0,2,7;0,2,7,8

$$$$

     RDKit          3D

 13 14  0  0  0  0  0  0  0  0999 V2000
  -27.7660   -6.9720  -30.8700 C   0  0  0  0  0  0  0  0  0  0  0  0
  -27.2940   -6.6600  -32.1110 N   0  0  0  0  0  0  0  0  0  0  0  0
  -27.4020   -8.2770  -30.2220 N   0  0  0  0  0  0  0  0  0  0  0  0
  -27.7370   -5.4350  -32.4400 C   0  0  0  0  0  0  0  0  0  0  0  0
  -28.4850   -4.9970  -31.3900 N   0  0  0  0  0  0  0  0  0  0  0  0
  -28.5010   -5.9240  -30.4490 N   0  0  0  0  0  0  0  0  0  0  0  0
  -28.9230   -5.9450  -29.0240 C   0  0  0  0  0  0  0  0  0  0  0  0
  -28.5190   -9.3100  -30.3090 C   0  0  2  0  0  0  0  0  0  0  0  0
  -28.2870  -10.2190  -29.1240 C   0  0  0  0  0  0  0  0  0  0  0  0
  -29.1170  -11.3080  -29.2730 O   0  0  0  0  0  0  0  0  0  0  0  0
  -29.6610  -11.3470  -30.5230 C   0  0  0  0  0  0  0  0  0  0  0  0
  -28.9420  -10.2960  -31.3590 C   0  0  0  0  0  0  0  0  0  0  0  0
  -29.2570   -4.5550  -28.4730 C   0  0  0  0  0  0  0  0  0  0  0  0
  1  2  2  0
  1  6  1  0
  1  3  1  0
  2  4  1  0
  8  3  1  6
  4  5  2  0
  5  6  1  0
  6  7  1  0
  8 12  1  0
  8  9  1  0
  9 10  1  0
 10 11  1  0
 11 12  1  0
  7 13  1  0
M  END
>  <name>  (299) 
Car Nac Nd0 Car Nac Nac Cs3 C3r C3r O_a C3r C3r Cs3

>  <indices>  (299) 
[0, 1, 2]

>  <tasks>  (299) 
probe_placing close_aromatic_ring close_aromatic_ring close_aromatic_ring ring_built build_to_Nac build_to_Nd0 close_aliphatic_ring close_aliphatic_ring close_aliphatic_ring close_aliphatic_ring

>  <prot_clashes>  (299) 
6

>  <NBS phar>  (299) 
0.13999999999999999

>  <NBS_non-phar>  (299) 
0.34905217244074893

>  <NBS>  (299) 
0.48905217244074894

>  <source_stage>  (299) 
scored

>  <source_iter>  (299) 
10

>  <source_parent_mol>  (299) 
1

>  <source_scenario>  (299) 
1 2 3 1 0 7 1 0 3 1

>  <source_rank_in_scored_call>  (299) 
95

>  <source_current_task>  (299) 
no_task

>  <scenario>  (299) 
1 2 3 1 0 7 1 0 3

>  <protected_ring_attachments>  (299) 
3,1,0,2|1,0,2;4,5,0,2|5,0,2;9,8,7,2|8,7,2;10,11,7,2|11,7,2

>  <current_task>  (299) 
no_task

>  <rotatable_bond_torsions>  (299) 
1,0,2,7;0,2,7,8

$$$$

     RDKit          3D

 13 14  0  0  0  0  0  0  0  0999 V2000
  -27.7730   -7.1700  -31.1400 C   0  0  0  0  0  0  0  0  0  0  0  0
  -27.6880   -6.7670  -32.4400 N   0  0  0  0  0  0  0  0  0  0  0  0
  -27.3670   -8.5620  -30.7450 N   0  0  0  0  0  0  0  0  0  0  0  0
  -28.0770   -5.4830  -32.5130 C   0  0  0  0  0  0  0  0  0  0  0  0
  -28.4010   -5.1010  -31.2470 N   0  0  0  0  0  0  0  0  0  0  0  0
  -28.2190   -6.1190  -30.4240 N   0  0  0  0  0  0  0  0  0  0  0  0
  -28.1670   -6.2580  -28.9460 C   0  0  0  0  0  0  0  0  0  0  0  0
  -28.5580   -9.4880  -30.5410 C   0  0  2  0  0  0  0  0  0  0  0  0
  -28.0630  -10.5330  -29.5670 C   0  0  0  0  0  0  0  0  0  0  0  0
  -29.0110  -11.5320  -29.5200 O   0  0  0  0  0  0  0  0  0  0  0  0
  -29.9240  -11.3960  -30.5240 C   0  0  0  0  0  0  0  0  0  0  0  0
  -29.3970  -10.3210  -31.4660 C   0  0  0  0  0  0  0  0  0  0  0  0
  -27.9630   -7.6020  -28.3450 C   0  0  0  0  0  0  0  0  0  0  0  0
  1  2  2  0
  1  3  1  0
  1  6  1  0
  2  4  1  0
  8  3  1  6
  4  5  2  0
  5  6  1  0
  6  7  1  0
  8 12  1  0
  8  9  1  0
  9 10  1  0
 10 11  1  0
 11 12  1  0
  7 13  1  0
M  END
>  <name>  (300) 
Car Nac Nd0 Car Nac Nac Cs3 C3r C3r O_a C3r C3r Cs3

>  <indices>  (300) 
[0, 1, 2]

>  <tasks>  (300) 
probe_placing close_aromatic_ring close_aromatic_ring close_aromatic_ring ring_built build_to_Nac build_to_Nd0 close_aliphatic_ring close_aliphatic_ring close_aliphatic_ring close_aliphatic_ring

>  <prot_clashes>  (300) 
8

>  <NBS phar>  (300) 
0.1

>  <NBS_non-phar>  (300) 
0.3739484640268179

>  <NBS>  (300) 
0.4739484640268179

>  <source_stage>  (300) 
scored

>  <source_iter>  (300) 
10

>  <source_parent_mol>  (300) 
1

>  <source_scenario>  (300) 
1 2 3 1 0 7 1 0 3 1

>  <source_rank_in_scored_call>  (300) 
112

>  <source_current_task>  (300) 
no_task

>  <scenario>  (300) 
1 2 3 1 0 7 1 0 3

>  <protected_ring_attachments>  (300) 
3,1,0,2|1,0,2;4,5,0,2|5,0,2;9,8,7,2|8,7,2;10,11,7,2|11,7,2

>  <current_task>  (300) 
no_task

>  <rotatable_bond_torsions>  (300) 
1,0,2,7;0,2,7,8

$$$$

     RDKit          3D

 13 14  0  0  0  0  0  0  0  0999 V2000
  -27.7310   -7.0840  -31.1870 C   0  0  0  0  0  0  0  0  0  0  0  0
  -27.6890   -6.7680  -32.5130 N   0  0  0  0  0  0  0  0  0  0  0  0
  -27.3490   -8.4590  -30.7190 N   0  0  0  0  0  0  0  0  0  0  0  0
  -28.0430   -5.4800  -32.6560 C   0  0  0  0  0  0  0  0  0  0  0  0
  -28.3010   -5.0060  -31.4050 N   0  0  0  0  0  0  0  0  0  0  0  0
  -28.1140   -5.9750  -30.5250 N   0  0  0  0  0  0  0  0  0  0  0  0
  -28.0040   -6.0190  -29.0440 C   0  0  0  0  0  0  0  0  0  0  0  0
  -28.5580   -9.3310  -30.4060 C   0  0  2  0  0  0  0  0  0  0  0  0
  -28.0520  -10.3270  -29.3860 C   0  0  0  0  0  0  0  0  0  0  0  0
  -29.0260  -11.2890  -29.2350 O   0  0  0  0  0  0  0  0  0  0  0  0
  -29.9760  -11.1890  -30.2080 C   0  0  0  0  0  0  0  0  0  0  0  0
  -29.4590  -10.1950  -31.2390 C   0  0  0  0  0  0  0  0  0  0  0  0
  -29.4430   -5.7860  -28.4950 C   0  0  0  0  0  0  0  0  0  0  0  0
  1  2  2  0
  1  3  1  0
  1  6  1  0
  2  4  1  0
  8  3  1  6
  4  5  2  0
  5  6  1  0
  6  7  1  0
  8 12  1  0
  8  9  1  0
  9 10  1  0
 10 11  1  0
 11 12  1  0
  7 13  1  0
M  END
>  <name>  (301) 
Car Nac Nd0 Car Nac Nac Cs3 C3r C3r O_a C3r C3r Cs3

>  <indices>  (301) 
[0, 1, 2]

>  <tasks>  (301) 
probe_placing close_aromatic_ring close_aromatic_ring close_aromatic_ring ring_built build_to_Nac build_to_Nd0 close_aliphatic_ring close_aliphatic_ring close_aliphatic_ring close_aliphatic_ring

>  <prot_clashes>  (301) 
12

>  <NBS phar>  (301) 
0.1

>  <NBS_non-phar>  (301) 
0.33748762424175555

>  <NBS>  (301) 
0.4374876242417556

>  <source_stage>  (301) 
scored

>  <source_iter>  (301) 
10

>  <source_parent_mol>  (301) 
1

>  <source_scenario>  (301) 
1 2 3 1 0 7 1 0 3 1

>  <source_rank_in_scored_call>  (301) 
147

>  <source_current_task>  (301) 
no_task

>  <scenario>  (301) 
1 2 3 1 0 7 1 0 3

>  <protected_ring_attachments>  (301) 
3,1,0,2|1,0,2;4,5,0,2|5,0,2;9,8,7,2|8,7,2;10,11,7,2|11,7,2

>  <current_task>  (301) 
no_task

>  <rotatable_bond_torsions>  (301) 
1,0,2,7;0,2,7,8

$$$$

     RDKit          3D

 13 14  0  0  0  0  0  0  0  0999 V2000
  -27.9470   -7.1100  -31.1890 C   0  0  0  0  0  0  0  0  0  0  0  0
  -27.6810   -6.8870  -32.5080 N   0  0  0  0  0  0  0  0  0  0  0  0
  -27.4860   -8.3740  -30.5210 N   0  0  0  0  0  0  0  0  0  0  0  0
  -28.1690   -5.6810  -32.8430 C   0  0  0  0  0  0  0  0  0  0  0  0
  -28.7370   -5.1640  -31.7190 N   0  0  0  0  0  0  0  0  0  0  0  0
  -28.6030   -6.0270  -30.7270 N   0  0  0  0  0  0  0  0  0  0  0  0
  -28.7900   -5.9480  -29.2540 C   0  0  0  0  0  0  0  0  0  0  0  0
  -28.6040   -9.3950  -30.3570 C   0  0  2  0  0  0  0  0  0  0  0  0
  -28.1860  -10.2270  -29.1660 C   0  0  0  0  0  0  0  0  0  0  0  0
  -29.0310  -11.3120  -29.1060 O   0  0  0  0  0  0  0  0  0  0  0  0
  -29.7690  -11.4280  -30.2470 C   0  0  0  0  0  0  0  0  0  0  0  0
  -29.1930  -10.4440  -31.2560 C   0  0  0  0  0  0  0  0  0  0  0  0
  -27.7090   -5.2480  -28.3850 C   0  0  0  0  0  0  0  0  0  0  0  0
  1  2  2  0
  1  6  1  0
  1  3  1  0
  2  4  1  0
  8  3  1  6
  4  5  2  0
  5  6  1  0
  6  7  1  0
  8 12  1  0
  8  9  1  0
  9 10  1  0
 10 11  1  0
 11 12  1  0
  7 13  1  0
M  END
>  <name>  (302) 
Car Nac Nd0 Car Nac Nac Cs3 C3r C3r O_a C3r C3r Cs3

>  <indices>  (302) 
[0, 1, 2]

>  <tasks>  (302) 
probe_placing close_aromatic_ring close_aromatic_ring close_aromatic_ring ring_built build_to_Nac build_to_Nd0 close_aliphatic_ring close_aliphatic_ring close_aliphatic_ring close_aliphatic_ring

>  <prot_clashes>  (302) 
10

>  <NBS phar>  (302) 
0.12

>  <NBS_non-phar>  (302) 
0.28677613918597883

>  <NBS>  (302) 
0.4067761391859788

>  <source_stage>  (302) 
scored

>  <source_iter>  (302) 
10

>  <source_parent_mol>  (302) 
1

>  <source_scenario>  (302) 
1 2 3 1 0 7 1 0 3 1

>  <source_rank_in_scored_call>  (302) 
155

>  <source_current_task>  (302) 
no_task

>  <scenario>  (302) 
1 2 3 1 0 7 1 0 3

>  <protected_ring_attachments>  (302) 
3,1,0,2|1,0,2;4,5,0,2|5,0,2;9,8,7,2|8,7,2;10,11,7,2|11,7,2

>  <current_task>  (302) 
no_task

>  <rotatable_bond_torsions>  (302) 
1,0,2,7;0,2,7,8

$$$$

     RDKit          3D

 13 14  0  0  0  0  0  0  0  0999 V2000
  -27.8370   -7.0720  -30.8270 C   0  0  0  0  0  0  0  0  0  0  0  0
  -27.4870   -6.8540  -32.1260 N   0  0  0  0  0  0  0  0  0  0  0  0
  -27.4580   -8.3520  -30.1390 N   0  0  0  0  0  0  0  0  0  0  0  0
  -27.9140   -5.6320  -32.4840 C   0  0  0  0  0  0  0  0  0  0  0  0
  -28.5300   -5.0990  -31.3920 N   0  0  0  0  0  0  0  0  0  0  0  0
  -28.4830   -5.9690  -30.3980 N   0  0  0  0  0  0  0  0  0  0  0  0
  -28.7530   -5.8880  -28.9390 C   0  0  0  0  0  0  0  0  0  0  0  0
  -28.6170   -9.3360  -30.0460 C   0  0  2  0  0  0  0  0  0  0  0  0
  -28.2970  -10.1850  -28.8360 C   0  0  0  0  0  0  0  0  0  0  0  0
  -29.1800  -11.2420  -28.8320 O   0  0  0  0  0  0  0  0  0  0  0  0
  -29.8530  -11.3300  -30.0150 C   0  0  0  0  0  0  0  0  0  0  0  0
  -29.1860  -10.3620  -30.9830 C   0  0  0  0  0  0  0  0  0  0  0  0
  -28.7790   -4.3430  -28.5540 C   0  0  0  0  0  0  0  0  0  0  0  0
  1  2  2  0
  1  6  1  0
  1  3  1  0
  2  4  1  0
  8  3  1  6
  4  5  2  0
  5  6  1  0
  6  7  1  0
  8 12  1  0
  8  9  1  0
  9 10  1  0
 10 11  1  0
 11 12  1  0
  7 13  1  0
M  END
>  <name>  (303) 
Car Nac Nd0 Car Nac Nac Cs3 C3r C3r O_a C3r C3r Cs3

>  <indices>  (303) 
[0, 1, 2]

>  <tasks>  (303) 
probe_placing close_aromatic_ring close_aromatic_ring close_aromatic_ring ring_built build_to_Nac build_to_Nd0 close_aliphatic_ring close_aliphatic_ring close_aliphatic_ring close_aliphatic_ring

>  <prot_clashes>  (303) 
5

>  <NBS phar>  (303) 
0.12

>  <NBS_non-phar>  (303) 
0.2812760609846849

>  <NBS>  (303) 
0.4012760609846849

>  <source_stage>  (303) 
scored

>  <source_iter>  (303) 
10

>  <source_parent_mol>  (303) 
1

>  <source_scenario>  (303) 
1 2 3 1 0 7 1 0 3 1

>  <source_rank_in_scored_call>  (303) 
156

>  <source_current_task>  (303) 
no_task

>  <scenario>  (303) 
1 2 3 1 0 7 1 0 3

>  <protected_ring_attachments>  (303) 
3,1,0,2|1,0,2;4,5,0,2|5,0,2;9,8,7,2|8,7,2;10,11,7,2|11,7,2

>  <current_task>  (303) 
no_task

>  <rotatable_bond_torsions>  (303) 
1,0,2,7;0,2,7,8

$$$$

     RDKit          3D

 13 14  0  0  0  0  0  0  0  0999 V2000
  -27.8120   -6.8910  -30.5880 C   0  0  0  0  0  0  0  0  0  0  0  0
  -27.3990   -6.9190  -31.8890 N   0  0  0  0  0  0  0  0  0  0  0  0
  -27.4240   -7.9940  -29.6440 N   0  0  0  0  0  0  0  0  0  0  0  0
  -27.8510   -5.8100  -32.5000 C   0  0  0  0  0  0  0  0  0  0  0  0
  -28.5420   -5.1030  -31.5640 N   0  0  0  0  0  0  0  0  0  0  0  0
  -28.5190   -5.7580  -30.4180 N   0  0  0  0  0  0  0  0  0  0  0  0
  -28.8700   -5.4040  -29.0170 C   0  0  0  0  0  0  0  0  0  0  0  0
  -28.6230   -8.9550  -29.2380 C   0  0  2  0  0  0  0  0  0  0  0  0
  -27.6720   -9.7970  -28.3970 C   0  0  0  0  0  0  0  0  0  0  0  0
  -28.3490  -10.7680  -27.7050 O   0  0  0  0  0  0  0  0  0  0  0  0
  -29.0200  -11.6270  -28.5140 C   0  0  0  0  0  0  0  0  0  0  0  0
  -30.0390  -10.9400  -29.3420 C   0  0  0  0  0  0  0  0  0  0  0  0
  -29.3160   -9.9140  -30.2110 C   0  0  0  0  0  0  0  0  0  0  0  0
  1  2  2  0
  1  6  1  0
  1  3  1  0
  2  4  1  0
  8  3  1  6
  4  5  2  0
  5  6  1  0
  6  7  1  0
  8 13  1  0
  8  9  1  0
  9 10  1  0
 10 11  1  0
 11 12  1  0
 12 13  1  0
M  END
>  <name>  (304) 
Car Nac Nd0 Car Nac Nac Cs3 C3r C3r O_a C3r C3r C3r

>  <indices>  (304) 
[0, 1, 2]

>  <tasks>  (304) 
probe_placing close_aromatic_ring close_aromatic_ring close_aromatic_ring ring_built build_to_Nac build_to_Nd0 close_aliphatic_ring close_aliphatic_ring close_aliphatic_ring close_aliphatic_ring

>  <prot_clashes>  (304) 
5

>  <NBS phar>  (304) 
0.12

>  <NBS_non-phar>  (304) 
0.4498390051034781

>  <NBS>  (304) 
0.5698390051034781

>  <source_stage>  (304) 
scored

>  <source_iter>  (304) 
10

>  <source_parent_mol>  (304) 
0

>  <source_scenario>  (304) 
1 2 3 1 0 7 1 1 3 0

>  <source_rank_in_scored_call>  (304) 
2

>  <source_current_task>  (304) 
close_aliphatic_ring

>  <scenario>  (304) 
1 2 3 1 0 7 1 1 3

>  <protected_ring_attachments>  (304) 
3,1,0,2|1,0,2;4,5,0,2|5,0,2

>  <current_task>  (304) 
no_task

>  <rotatable_bond_torsions>  (304) 
1,0,2,7;0,2,7,8;2,7,8,9;7,8,9,10;8,9,10,11

$$$$

     RDKit          3D

 14 15  0  0  0  0  0  0  0  0999 V2000
  -27.7580   -6.7900  -30.5400 C   0  0  0  0  0  0  0  0  0  0  0  0
  -27.6400   -7.0210  -31.8800 N   0  0  0  0  0  0  0  0  0  0  0  0
  -27.3290   -7.8330  -29.5480 N   0  0  0  0  0  0  0  0  0  0  0  0
  -28.0590   -5.9260  -32.5370 C   0  0  0  0  0  0  0  0  0  0  0  0
  -28.4340   -5.0220  -31.5900 N   0  0  0  0  0  0  0  0  0  0  0  0
  -28.2550   -5.5470  -30.3920 N   0  0  0  0  0  0  0  0  0  0  0  0
  -28.2490   -4.9950  -29.0110 C   0  0  0  0  0  0  0  0  0  0  0  0
  -28.5320   -8.5430  -28.7880 C   0  0  2  0  0  0  0  0  0  0  0  0
  -27.5450   -9.4310  -28.0420 C   0  0  0  0  0  0  0  0  0  0  0  0
  -28.1820  -10.2030  -27.1050 O   0  0  0  0  0  0  0  0  0  0  0  0
  -29.1190  -11.0250  -27.6420 C   0  0  0  0  0  0  0  0  0  0  0  0
  -30.1900  -10.2770  -28.3420 C   0  0  0  0  0  0  0  0  0  0  0  0
  -29.5380   -9.4780  -29.4670 C   0  0  0  0  0  0  0  0  0  0  0  0
  -29.5670   -5.3870  -28.3900 C   0  0  0  0  0  0  0  0  0  0  0  0
  1  2  2  0
  1  6  1  0
  1  3  1  0
  2  4  1  0
  8  3  1  6
  4  5  2  0
  5  6  1  0
  6  7  1  0
  8 13  1  0
  8  9  1  0
  9 10  1  0
 10 11  1  0
 11 12  1  0
 12 13  1  0
  7 14  1  0
M  END
>  <name>  (305) 
Car Nac Nd0 Car Nac Nac Cs3 C3r C3r O_a C3r C3r C3r Cs3

>  <indices>  (305) 
[0, 1, 2]

>  <tasks>  (305) 
probe_placing close_aromatic_ring close_aromatic_ring close_aromatic_ring ring_built build_to_Nac build_to_Nd0 close_aliphatic_ring close_aliphatic_ring close_aliphatic_ring close_aliphatic_ring close_aliphatic_ring

>  <prot_clashes>  (305) 
8

>  <NBS phar>  (305) 
0.12

>  <NBS_non-phar>  (305) 
0.5475967270987374

>  <NBS>  (305) 
0.6675967270987374

>  <source_stage>  (305) 
scored

>  <source_iter>  (305) 
11

>  <source_parent_mol>  (305) 
2

>  <source_scenario>  (305) 
1 2 3 1 0 7 1 1 3 0 2

>  <source_rank_in_scored_call>  (305) 
14

>  <source_current_task>  (305) 
no_task

>  <scenario>  (305) 
1 2 3 1 0 7 1 1 3 0

>  <protected_ring_attachments>  (305) 
3,1,0,2|1,0,2;4,5,0,2|5,0,2;9,8,7,2|8,7,2;11,12,7,2|12,7,2

>  <current_task>  (305) 
no_task

>  <rotatable_bond_torsions>  (305) 
1,0,2,7;0,2,7,8

$$$$

     RDKit          3D

 14 15  0  0  0  0  0  0  0  0999 V2000
  -27.7580   -6.9060  -30.5340 C   0  0  0  0  0  0  0  0  0  0  0  0
  -27.6550   -7.1090  -31.8800 N   0  0  0  0  0  0  0  0  0  0  0  0
  -27.3340   -7.9770  -29.5690 N   0  0  0  0  0  0  0  0  0  0  0  0
  -28.0650   -5.9940  -32.5080 C   0  0  0  0  0  0  0  0  0  0  0  0
  -28.4190   -5.1070  -31.5380 N   0  0  0  0  0  0  0  0  0  0  0  0
  -28.2360   -5.6600  -30.3540 N   0  0  0  0  0  0  0  0  0  0  0  0
  -28.2090   -5.1380  -28.9610 C   0  0  0  0  0  0  0  0  0  0  0  0
  -28.5380   -8.6870  -28.8130 C   0  0  2  0  0  0  0  0  0  0  0  0
  -27.5560   -9.6040  -28.0960 C   0  0  0  0  0  0  0  0  0  0  0  0
  -28.1960  -10.3880  -27.1700 O   0  0  0  0  0  0  0  0  0  0  0  0
  -29.1480  -11.1860  -27.7160 C   0  0  0  0  0  0  0  0  0  0  0  0
  -30.2150  -10.4080  -28.3890 C   0  0  0  0  0  0  0  0  0  0  0  0
  -29.5630   -9.5920  -29.5030 C   0  0  0  0  0  0  0  0  0  0  0  0
  -29.1860   -3.9980  -28.7630 C   0  0  0  0  0  0  0  0  0  0  0  0
  1  2  2  0
  1  6  1  0
  1  3  1  0
  2  4  1  0
  8  3  1  6
  4  5  2  0
  5  6  1  0
  6  7  1  0
  8 13  1  0
  8  9  1  0
  9 10  1  0
 10 11  1  0
 11 12  1  0
 12 13  1  0
  7 14  1  0
M  END
>  <name>  (306) 
Car Nac Nd0 Car Nac Nac Cs3 C3r C3r O_a C3r C3r C3r Cs3

>  <indices>  (306) 
[0, 1, 2]

>  <tasks>  (306) 
probe_placing close_aromatic_ring close_aromatic_ring close_aromatic_ring ring_built build_to_Nac build_to_Nd0 close_aliphatic_ring close_aliphatic_ring close_aliphatic_ring close_aliphatic_ring close_aliphatic_ring

>  <prot_clashes>  (306) 
6

>  <NBS phar>  (306) 
0.12

>  <NBS_non-phar>  (306) 
0.5344599315098354

>  <NBS>  (306) 
0.6544599315098354

>  <source_stage>  (306) 
scored

>  <source_iter>  (306) 
11

>  <source_parent_mol>  (306) 
2

>  <source_scenario>  (306) 
1 2 3 1 0 7 1 1 3 0 2

>  <source_rank_in_scored_call>  (306) 
19

>  <source_current_task>  (306) 
no_task

>  <scenario>  (306) 
1 2 3 1 0 7 1 1 3 0

>  <protected_ring_attachments>  (306) 
3,1,0,2|1,0,2;4,5,0,2|5,0,2;9,8,7,2|8,7,2;11,12,7,2|12,7,2

>  <current_task>  (306) 
no_task

>  <rotatable_bond_torsions>  (306) 
1,0,2,7;0,2,7,8

$$$$

     RDKit          3D

 14 15  0  0  0  0  0  0  0  0999 V2000
  -27.7420   -6.8440  -30.5480 C   0  0  0  0  0  0  0  0  0  0  0  0
  -27.6550   -7.0380  -31.8970 N   0  0  0  0  0  0  0  0  0  0  0  0
  -27.3120   -7.9240  -29.5960 N   0  0  0  0  0  0  0  0  0  0  0  0
  -28.0670   -5.9160  -32.5130 C   0  0  0  0  0  0  0  0  0  0  0  0
  -28.4050   -5.0340  -31.5320 N   0  0  0  0  0  0  0  0  0  0  0  0
  -28.2110   -5.5970  -30.3540 N   0  0  0  0  0  0  0  0  0  0  0  0
  -28.1660   -5.0860  -28.9580 C   0  0  0  0  0  0  0  0  0  0  0  0
  -28.5120   -8.6330  -28.8320 C   0  0  2  0  0  0  0  0  0  0  0  0
  -27.5260   -9.5610  -28.1320 C   0  0  0  0  0  0  0  0  0  0  0  0
  -28.1590  -10.3480  -27.2050 O   0  0  0  0  0  0  0  0  0  0  0  0
  -29.1220  -11.1370  -27.7460 C   0  0  0  0  0  0  0  0  0  0  0  0
  -30.1930  -10.3490  -28.4000 C   0  0  0  0  0  0  0  0  0  0  0  0
  -29.5490   -9.5290  -29.5160 C   0  0  0  0  0  0  0  0  0  0  0  0
  -29.5670   -5.0960  -28.4050 C   0  0  0  0  0  0  0  0  0  0  0  0
  1  2  2  0
  1  6  1  0
  1  3  1  0
  2  4  1  0
  8  3  1  6
  4  5  2  0
  5  6  1  0
  6  7  1  0
  8 13  1  0
  8  9  1  0
  9 10  1  0
 10 11  1  0
 11 12  1  0
 12 13  1  0
  7 14  1  0
M  END
>  <name>  (307) 
Car Nac Nd0 Car Nac Nac Cs3 C3r C3r O_a C3r C3r C3r Cs3

>  <indices>  (307) 
[0, 1, 2]

>  <tasks>  (307) 
probe_placing close_aromatic_ring close_aromatic_ring close_aromatic_ring ring_built build_to_Nac build_to_Nd0 close_aliphatic_ring close_aliphatic_ring close_aliphatic_ring close_aliphatic_ring close_aliphatic_ring

>  <prot_clashes>  (307) 
8

>  <NBS phar>  (307) 
0.1

>  <NBS_non-phar>  (307) 
0.5410254001617432

>  <NBS>  (307) 
0.6410254001617431

>  <source_stage>  (307) 
scored

>  <source_iter>  (307) 
11

>  <source_parent_mol>  (307) 
2

>  <source_scenario>  (307) 
1 2 3 1 0 7 1 1 3 0 2

>  <source_rank_in_scored_call>  (307) 
25

>  <source_current_task>  (307) 
no_task

>  <scenario>  (307) 
1 2 3 1 0 7 1 1 3 0

>  <protected_ring_attachments>  (307) 
3,1,0,2|1,0,2;4,5,0,2|5,0,2;9,8,7,2|8,7,2;11,12,7,2|12,7,2

>  <current_task>  (307) 
no_task

>  <rotatable_bond_torsions>  (307) 
1,0,2,7;0,2,7,8

$$$$

     RDKit          3D

 14 15  0  0  0  0  0  0  0  0999 V2000
  -27.7380   -6.8420  -30.5460 C   0  0  0  0  0  0  0  0  0  0  0  0
  -27.6560   -7.0580  -31.8920 N   0  0  0  0  0  0  0  0  0  0  0  0
  -27.3100   -7.9090  -29.5780 N   0  0  0  0  0  0  0  0  0  0  0  0
  -28.0650   -5.9440  -32.5240 C   0  0  0  0  0  0  0  0  0  0  0  0
  -28.3950   -5.0450  -31.5570 N   0  0  0  0  0  0  0  0  0  0  0  0
  -28.2010   -5.5900  -30.3700 N   0  0  0  0  0  0  0  0  0  0  0  0
  -28.1490   -5.0560  -28.9830 C   0  0  0  0  0  0  0  0  0  0  0  0
  -28.5110   -8.6000  -28.7990 C   0  0  2  0  0  0  0  0  0  0  0  0
  -27.5280   -9.5210  -28.0880 C   0  0  0  0  0  0  0  0  0  0  0  0
  -28.1610  -10.2900  -27.1460 O   0  0  0  0  0  0  0  0  0  0  0  0
  -29.1300  -11.0830  -27.6710 C   0  0  0  0  0  0  0  0  0  0  0  0
  -30.1990  -10.3000  -28.3350 C   0  0  0  0  0  0  0  0  0  0  0  0
  -29.5550   -9.5010  -29.4660 C   0  0  0  0  0  0  0  0  0  0  0  0
  -29.5640   -5.1080  -28.3900 C   0  0  0  0  0  0  0  0  0  0  0  0
  1  2  2  0
  1  6  1  0
  1  3  1  0
  2  4  1  0
  8  3  1  6
  4  5  2  0
  5  6  1  0
  6  7  1  0
  8 13  1  0
  8  9  1  0
  9 10  1  0
 10 11  1  0
 11 12  1  0
 12 13  1  0
  7 14  1  0
M  END
>  <name>  (308) 
Car Nac Nd0 Car Nac Nac Cs3 C3r C3r O_a C3r C3r C3r Cs3

>  <indices>  (308) 
[0, 1, 2]

>  <tasks>  (308) 
probe_placing close_aromatic_ring close_aromatic_ring close_aromatic_ring ring_built build_to_Nac build_to_Nd0 close_aliphatic_ring close_aliphatic_ring close_aliphatic_ring close_aliphatic_ring close_aliphatic_ring

>  <prot_clashes>  (308) 
8

>  <NBS phar>  (308) 
0.1

>  <NBS_non-phar>  (308) 
0.5183433805193219

>  <NBS>  (308) 
0.6183433805193219

>  <source_stage>  (308) 
scored

>  <source_iter>  (308) 
11

>  <source_parent_mol>  (308) 
2

>  <source_scenario>  (308) 
1 2 3 1 0 7 1 1 3 0 2

>  <source_rank_in_scored_call>  (308) 
43

>  <source_current_task>  (308) 
no_task

>  <scenario>  (308) 
1 2 3 1 0 7 1 1 3 0

>  <protected_ring_attachments>  (308) 
3,1,0,2|1,0,2;4,5,0,2|5,0,2;9,8,7,2|8,7,2;11,12,7,2|12,7,2

>  <current_task>  (308) 
no_task

>  <rotatable_bond_torsions>  (308) 
1,0,2,7;0,2,7,8

$$$$

     RDKit          3D

 14 15  0  0  0  0  0  0  0  0999 V2000
  -27.7260   -6.8710  -30.5580 C   0  0  0  0  0  0  0  0  0  0  0  0
  -27.6610   -7.0590  -31.9090 N   0  0  0  0  0  0  0  0  0  0  0  0
  -27.3010   -7.9640  -29.6180 N   0  0  0  0  0  0  0  0  0  0  0  0
  -28.0640   -5.9270  -32.5130 C   0  0  0  0  0  0  0  0  0  0  0  0
  -28.3750   -5.0460  -31.5230 N   0  0  0  0  0  0  0  0  0  0  0  0
  -28.1740   -5.6190  -30.3500 N   0  0  0  0  0  0  0  0  0  0  0  0
  -28.1030   -5.1170  -28.9520 C   0  0  0  0  0  0  0  0  0  0  0  0
  -28.5010   -8.6590  -28.8420 C   0  0  2  0  0  0  0  0  0  0  0  0
  -27.5210   -9.6060  -28.1620 C   0  0  0  0  0  0  0  0  0  0  0  0
  -28.1530  -10.3890  -27.2300 O   0  0  0  0  0  0  0  0  0  0  0  0
  -29.1350  -11.1600  -27.7630 C   0  0  0  0  0  0  0  0  0  0  0  0
  -30.2020  -10.3520  -28.3990 C   0  0  0  0  0  0  0  0  0  0  0  0
  -29.5610   -9.5350  -29.5180 C   0  0  0  0  0  0  0  0  0  0  0  0
  -29.5650   -4.7690  -28.5420 C   0  0  0  0  0  0  0  0  0  0  0  0
  1  2  2  0
  1  6  1  0
  1  3  1  0
  2  4  1  0
  8  3  1  6
  4  5  2  0
  5  6  1  0
  6  7  1  0
  8 13  1  0
  8  9  1  0
  9 10  1  0
 10 11  1  0
 11 12  1  0
 12 13  1  0
  7 14  1  0
M  END
>  <name>  (309) 
Car Nac Nd0 Car Nac Nac Cs3 C3r C3r O_a C3r C3r C3r Cs3

>  <indices>  (309) 
[0, 1, 2]

>  <tasks>  (309) 
probe_placing close_aromatic_ring close_aromatic_ring close_aromatic_ring ring_built build_to_Nac build_to_Nd0 close_aliphatic_ring close_aliphatic_ring close_aliphatic_ring close_aliphatic_ring close_aliphatic_ring

>  <prot_clashes>  (309) 
9

>  <NBS phar>  (309) 
0.1

>  <NBS_non-phar>  (309) 
0.5098016262054443

>  <NBS>  (309) 
0.6098016262054443

>  <source_stage>  (309) 
scored

>  <source_iter>  (309) 
11

>  <source_parent_mol>  (309) 
2

>  <source_scenario>  (309) 
1 2 3 1 0 7 1 1 3 0 2

>  <source_rank_in_scored_call>  (309) 
45

>  <source_current_task>  (309) 
no_task

>  <scenario>  (309) 
1 2 3 1 0 7 1 1 3 0

>  <protected_ring_attachments>  (309) 
3,1,0,2|1,0,2;4,5,0,2|5,0,2;9,8,7,2|8,7,2;11,12,7,2|12,7,2

>  <current_task>  (309) 
no_task

>  <rotatable_bond_torsions>  (309) 
1,0,2,7;0,2,7,8

$$$$

     RDKit          3D

 14 15  0  0  0  0  0  0  0  0999 V2000
  -27.9010   -6.6510  -30.3420 C   0  0  0  0  0  0  0  0  0  0  0  0
  -27.3140   -6.9830  -31.5290 N   0  0  0  0  0  0  0  0  0  0  0  0
  -27.6330   -7.4650  -29.1080 N   0  0  0  0  0  0  0  0  0  0  0  0
  -27.6900   -6.0820  -32.4530 C   0  0  0  0  0  0  0  0  0  0  0  0
  -28.5110   -5.1970  -31.8240 N   0  0  0  0  0  0  0  0  0  0  0  0
  -28.6370   -5.5440  -30.5560 N   0  0  0  0  0  0  0  0  0  0  0  0
  -29.1800   -4.8690  -29.3480 C   0  0  0  0  0  0  0  0  0  0  0  0
  -28.8650   -8.3480  -28.6300 C   0  0  2  0  0  0  0  0  0  0  0  0
  -28.0290   -8.9100  -27.4880 C   0  0  0  0  0  0  0  0  0  0  0  0
  -28.7830   -9.7080  -26.6670 O   0  0  0  0  0  0  0  0  0  0  0  0
  -29.3270  -10.7710  -27.3120 C   0  0  0  0  0  0  0  0  0  0  0  0
  -30.2310  -10.3590  -28.4120 C   0  0  0  0  0  0  0  0  0  0  0  0
  -29.4080   -9.5490  -29.4110 C   0  0  0  0  0  0  0  0  0  0  0  0
  -28.3400   -3.7670  -28.6480 C   0  0  0  0  0  0  0  0  0  0  0  0
  1  2  2  0
  1  6  1  0
  1  3  1  0
  2  4  1  0
  8  3  1  6
  4  5  2  0
  5  6  1  0
  6  7  1  0
  8 13  1  0
  8  9  1  0
  9 10  1  0
 10 11  1  0
 11 12  1  0
 12 13  1  0
  7 14  1  0
M  END
>  <name>  (310) 
Car Nac Nd0 Car Nac Nac Cs3 C3r C3r O_a C3r C3r C3r Cs3

>  <indices>  (310) 
[0, 1, 2]

>  <tasks>  (310) 
probe_placing close_aromatic_ring close_aromatic_ring close_aromatic_ring ring_built build_to_Nac build_to_Nd0 close_aliphatic_ring close_aliphatic_ring close_aliphatic_ring close_aliphatic_ring close_aliphatic_ring

>  <prot_clashes>  (310) 
9

>  <NBS phar>  (310) 
0.02

>  <NBS_non-phar>  (310) 
0.5276067938123431

>  <NBS>  (310) 
0.5476067938123431

>  <source_stage>  (310) 
scored

>  <source_iter>  (310) 
11

>  <source_parent_mol>  (310) 
2

>  <source_scenario>  (310) 
1 2 3 1 0 7 1 1 3 0 2

>  <source_rank_in_scored_call>  (310) 
75

>  <source_current_task>  (310) 
no_task

>  <scenario>  (310) 
1 2 3 1 0 7 1 1 3 0

>  <protected_ring_attachments>  (310) 
3,1,0,2|1,0,2;4,5,0,2|5,0,2;9,8,7,2|8,7,2;11,12,7,2|12,7,2

>  <current_task>  (310) 
no_task

>  <rotatable_bond_torsions>  (310) 
1,0,2,7;0,2,7,8

$$$$

     RDKit          3D

 14 15  0  0  0  0  0  0  0  0999 V2000
  -27.8510   -6.6710  -30.4000 C   0  0  0  0  0  0  0  0  0  0  0  0
  -27.4330   -6.9560  -31.6680 N   0  0  0  0  0  0  0  0  0  0  0  0
  -27.3200   -7.4550  -29.2320 N   0  0  0  0  0  0  0  0  0  0  0  0
  -28.0290   -6.0950  -32.5120 C   0  0  0  0  0  0  0  0  0  0  0  0
  -28.8130   -5.2820  -31.7510 N   0  0  0  0  0  0  0  0  0  0  0  0
  -28.7050   -5.6340  -30.4840 N   0  0  0  0  0  0  0  0  0  0  0  0
  -29.1050   -5.0050  -29.1980 C   0  0  0  0  0  0  0  0  0  0  0  0
  -28.3790   -8.4400  -28.5750 C   0  0  2  0  0  0  0  0  0  0  0  0
  -27.3260   -8.9230  -27.5860 C   0  0  0  0  0  0  0  0  0  0  0  0
  -27.8680   -9.7810  -26.6630 O   0  0  0  0  0  0  0  0  0  0  0  0
  -28.4140  -10.8890  -27.2240 C   0  0  0  0  0  0  0  0  0  0  0  0
  -29.5130  -10.5620  -28.1620 C   0  0  0  0  0  0  0  0  0  0  0  0
  -28.9330   -9.6870  -29.2710 C   0  0  0  0  0  0  0  0  0  0  0  0
  -28.0650   -3.9930  -28.7650 C   0  0  0  0  0  0  0  0  0  0  0  0
  1  2  2  0
  1  6  1  0
  1  3  1  0
  2  4  1  0
  8  3  1  6
  4  5  2  0
  5  6  1  0
  6  7  1  0
  8 13  1  0
  8  9  1  0
  9 10  1  0
 10 11  1  0
 11 12  1  0
 12 13  1  0
  7 14  1  0
M  END
>  <name>  (311) 
Car Nac Nd0 Car Nac Nac Cs3 C3r C3r O_a C3r C3r C3r Cs3

>  <indices>  (311) 
[0, 1, 2]

>  <tasks>  (311) 
probe_placing close_aromatic_ring close_aromatic_ring close_aromatic_ring ring_built build_to_Nac build_to_Nd0 close_aliphatic_ring close_aliphatic_ring close_aliphatic_ring close_aliphatic_ring close_aliphatic_ring

>  <prot_clashes>  (311) 
7

>  <NBS phar>  (311) 
0.04

>  <NBS_non-phar>  (311) 
0.49406038011823383

>  <NBS>  (311) 
0.5340603801182339

>  <source_stage>  (311) 
scored

>  <source_iter>  (311) 
11

>  <source_parent_mol>  (311) 
2

>  <source_scenario>  (311) 
1 2 3 1 0 7 1 1 3 0 2

>  <source_rank_in_scored_call>  (311) 
83

>  <source_current_task>  (311) 
no_task

>  <scenario>  (311) 
1 2 3 1 0 7 1 1 3 0

>  <protected_ring_attachments>  (311) 
3,1,0,2|1,0,2;4,5,0,2|5,0,2;9,8,7,2|8,7,2;11,12,7,2|12,7,2

>  <current_task>  (311) 
no_task

>  <rotatable_bond_torsions>  (311) 
1,0,2,7;0,2,7,8

$$$$

     RDKit          3D

 14 15  0  0  0  0  0  0  0  0999 V2000
  -27.7350   -6.7780  -30.4570 C   0  0  0  0  0  0  0  0  0  0  0  0
  -27.3490   -6.9770  -31.7520 N   0  0  0  0  0  0  0  0  0  0  0  0
  -27.3570   -7.7680  -29.3920 N   0  0  0  0  0  0  0  0  0  0  0  0
  -27.7830   -5.9380  -32.4870 C   0  0  0  0  0  0  0  0  0  0  0  0
  -28.4360   -5.1020  -31.6330 N   0  0  0  0  0  0  0  0  0  0  0  0
  -28.4080   -5.6130  -30.4160 N   0  0  0  0  0  0  0  0  0  0  0  0
  -28.7210   -5.0800  -29.0630 C   0  0  0  0  0  0  0  0  0  0  0  0
  -28.5730   -8.6370  -28.8510 C   0  0  2  0  0  0  0  0  0  0  0  0
  -27.6290   -9.3970  -27.9290 C   0  0  0  0  0  0  0  0  0  0  0  0
  -28.3170  -10.2560  -27.1120 O   0  0  0  0  0  0  0  0  0  0  0  0
  -29.0270  -11.1880  -27.7980 C   0  0  0  0  0  0  0  0  0  0  0  0
  -30.0440  -10.5780  -28.6870 C   0  0  0  0  0  0  0  0  0  0  0  0
  -29.3110   -9.6870  -29.6870 C   0  0  0  0  0  0  0  0  0  0  0  0
  -28.1490   -3.6410  -28.7710 C   0  0  0  0  0  0  0  0  0  0  0  0
  1  2  2  0
  1  6  1  0
  1  3  1  0
  2  4  1  0
  8  3  1  6
  4  5  2  0
  5  6  1  0
  6  7  1  0
  8 13  1  0
  8  9  1  0
  9 10  1  0
 10 11  1  0
 11 12  1  0
 12 13  1  0
  7 14  1  0
M  END
>  <name>  (312) 
Car Nac Nd0 Car Nac Nac Cs3 C3r C3r O_a C3r C3r C3r Cs3

>  <indices>  (312) 
[0, 1, 2]

>  <tasks>  (312) 
probe_placing close_aromatic_ring close_aromatic_ring close_aromatic_ring ring_built build_to_Nac build_to_Nd0 close_aliphatic_ring close_aliphatic_ring close_aliphatic_ring close_aliphatic_ring close_aliphatic_ring

>  <prot_clashes>  (312) 
6

>  <NBS phar>  (312) 
0.02

>  <NBS_non-phar>  (312) 
0.4753338609422956

>  <NBS>  (312) 
0.49533386094229565

>  <source_stage>  (312) 
scored

>  <source_iter>  (312) 
11

>  <source_parent_mol>  (312) 
2

>  <source_scenario>  (312) 
1 2 3 1 0 7 1 1 3 0 2

>  <source_rank_in_scored_call>  (312) 
100

>  <source_current_task>  (312) 
no_task

>  <scenario>  (312) 
1 2 3 1 0 7 1 1 3 0

>  <protected_ring_attachments>  (312) 
3,1,0,2|1,0,2;4,5,0,2|5,0,2;9,8,7,2|8,7,2;11,12,7,2|12,7,2

>  <current_task>  (312) 
no_task

>  <rotatable_bond_torsions>  (312) 
1,0,2,7;0,2,7,8

$$$$

     RDKit          3D

 14 15  0  0  0  0  0  0  0  0999 V2000
  -27.7410   -6.9270  -30.3620 C   0  0  0  0  0  0  0  0  0  0  0  0
  -27.3160   -6.9750  -31.6580 N   0  0  0  0  0  0  0  0  0  0  0  0
  -27.3830   -8.0280  -29.4040 N   0  0  0  0  0  0  0  0  0  0  0  0
  -27.7420   -5.8630  -32.2830 C   0  0  0  0  0  0  0  0  0  0  0  0
  -28.4290   -5.1350  -31.3610 N   0  0  0  0  0  0  0  0  0  0  0  0
  -28.4290   -5.7800  -30.2090 N   0  0  0  0  0  0  0  0  0  0  0  0
  -28.7870   -5.4070  -28.8150 C   0  0  0  0  0  0  0  0  0  0  0  0
  -28.6030   -8.9630  -29.0010 C   0  0  2  0  0  0  0  0  0  0  0  0
  -27.6760   -9.8150  -28.1430 C   0  0  0  0  0  0  0  0  0  0  0  0
  -28.3780  -10.7670  -27.4490 O   0  0  0  0  0  0  0  0  0  0  0  0
  -29.0570  -11.6210  -28.2570 C   0  0  0  0  0  0  0  0  0  0  0  0
  -30.0550  -10.9230  -29.1020 C   0  0  0  0  0  0  0  0  0  0  0  0
  -29.3040   -9.9190  -29.9720 C   0  0  0  0  0  0  0  0  0  0  0  0
  -28.8580   -3.8170  -28.7610 C   0  0  0  0  0  0  0  0  0  0  0  0
  1  2  2  0
  1  6  1  0
  1  3  1  0
  2  4  1  0
  8  3  1  6
  4  5  2  0
  5  6  1  0
  6  7  1  0
  8 13  1  0
  8  9  1  0
  9 10  1  0
 10 11  1  0
 11 12  1  0
 12 13  1  0
  7 14  1  0
M  END
>  <name>  (313) 
Car Nac Nd0 Car Nac Nac Cs3 C3r C3r O_a C3r C3r C3r Cs3

>  <indices>  (313) 
[0, 1, 2]

>  <tasks>  (313) 
probe_placing close_aromatic_ring close_aromatic_ring close_aromatic_ring ring_built build_to_Nac build_to_Nd0 close_aliphatic_ring close_aliphatic_ring close_aliphatic_ring close_aliphatic_ring close_aliphatic_ring

>  <prot_clashes>  (313) 
5

>  <NBS phar>  (313) 
0.04

>  <NBS_non-phar>  (313) 
0.4526569162096296

>  <NBS>  (313) 
0.4926569162096296

>  <source_stage>  (313) 
scored

>  <source_iter>  (313) 
11

>  <source_parent_mol>  (313) 
2

>  <source_scenario>  (313) 
1 2 3 1 0 7 1 1 3 0 2

>  <source_rank_in_scored_call>  (313) 
104

>  <source_current_task>  (313) 
no_task

>  <scenario>  (313) 
1 2 3 1 0 7 1 1 3 0

>  <protected_ring_attachments>  (313) 
3,1,0,2|1,0,2;4,5,0,2|5,0,2;9,8,7,2|8,7,2;11,12,7,2|12,7,2

>  <current_task>  (313) 
no_task

>  <rotatable_bond_torsions>  (313) 
1,0,2,7;0,2,7,8

$$$$

     RDKit          3D

 14 15  0  0  0  0  0  0  0  0999 V2000
  -27.7460   -6.8130  -30.5300 C   0  0  0  0  0  0  0  0  0  0  0  0
  -27.3160   -6.8970  -31.8230 N   0  0  0  0  0  0  0  0  0  0  0  0
  -27.3640   -7.8690  -29.5320 N   0  0  0  0  0  0  0  0  0  0  0  0
  -27.7670   -5.8200  -32.4890 C   0  0  0  0  0  0  0  0  0  0  0  0
  -28.4750   -5.0760  -31.5950 N   0  0  0  0  0  0  0  0  0  0  0  0
  -28.4630   -5.6780  -30.4200 N   0  0  0  0  0  0  0  0  0  0  0  0
  -28.8350   -5.2640  -29.0420 C   0  0  0  0  0  0  0  0  0  0  0  0
  -28.5620   -8.8190  -29.0980 C   0  0  2  0  0  0  0  0  0  0  0  0
  -27.6170   -9.6160  -28.2070 C   0  0  0  0  0  0  0  0  0  0  0  0
  -28.2960  -10.5590  -27.4810 O   0  0  0  0  0  0  0  0  0  0  0  0
  -28.9510  -11.4580  -28.2590 C   0  0  0  0  0  0  0  0  0  0  0  0
  -29.9630  -10.8170  -29.1300 C   0  0  0  0  0  0  0  0  0  0  0  0
  -29.2350   -9.8260  -30.0350 C   0  0  0  0  0  0  0  0  0  0  0  0
  -28.6550   -3.6810  -28.6990 C   0  0  0  0  0  0  0  0  0  0  0  0
  1  2  2  0
  1  6  1  0
  1  3  1  0
  2  4  1  0
  8  3  1  6
  4  5  2  0
  5  6  1  0
  6  7  1  0
  8 13  1  0
  8  9  1  0
  9 10  1  0
 10 11  1  0
 11 12  1  0
 12 13  1  0
  7 14  1  0
M  END
>  <name>  (314) 
Car Nac Nd0 Car Nac Nac Cs3 C3r C3r O_a C3r C3r C3r Cs3

>  <indices>  (314) 
[0, 1, 2]

>  <tasks>  (314) 
probe_placing close_aromatic_ring close_aromatic_ring close_aromatic_ring ring_built build_to_Nac build_to_Nd0 close_aliphatic_ring close_aliphatic_ring close_aliphatic_ring close_aliphatic_ring close_aliphatic_ring

>  <prot_clashes>  (314) 
6

>  <NBS phar>  (314) 
0.02

>  <NBS_non-phar>  (314) 
0.45458214623587473

>  <NBS>  (314) 
0.47458214623587475

>  <source_stage>  (314) 
scored

>  <source_iter>  (314) 
11

>  <source_parent_mol>  (314) 
2

>  <source_scenario>  (314) 
1 2 3 1 0 7 1 1 3 0 2

>  <source_rank_in_scored_call>  (314) 
118

>  <source_current_task>  (314) 
no_task

>  <scenario>  (314) 
1 2 3 1 0 7 1 1 3 0

>  <protected_ring_attachments>  (314) 
3,1,0,2|1,0,2;4,5,0,2|5,0,2;9,8,7,2|8,7,2;11,12,7,2|12,7,2

>  <current_task>  (314) 
no_task

>  <rotatable_bond_torsions>  (314) 
1,0,2,7;0,2,7,8

$$$$

     RDKit          3D

 14 15  0  0  0  0  0  0  0  0999 V2000
  -27.7490   -6.9280  -30.4060 C   0  0  0  0  0  0  0  0  0  0  0  0
  -27.3140   -6.9900  -31.6990 N   0  0  0  0  0  0  0  0  0  0  0  0
  -27.3930   -8.0160  -29.4330 N   0  0  0  0  0  0  0  0  0  0  0  0
  -27.7390   -5.8870  -32.3410 C   0  0  0  0  0  0  0  0  0  0  0  0
  -28.4350   -5.1510  -31.4320 N   0  0  0  0  0  0  0  0  0  0  0  0
  -28.4410   -5.7810  -30.2720 N   0  0  0  0  0  0  0  0  0  0  0  0
  -28.8100   -5.3930  -28.8850 C   0  0  0  0  0  0  0  0  0  0  0  0
  -28.6140   -8.9510  -29.0270 C   0  0  2  0  0  0  0  0  0  0  0  0
  -27.6900   -9.7890  -28.1520 C   0  0  0  0  0  0  0  0  0  0  0  0
  -28.3930  -10.7350  -27.4520 O   0  0  0  0  0  0  0  0  0  0  0  0
  -29.0630  -11.6010  -28.2540 C   0  0  0  0  0  0  0  0  0  0  0  0
  -30.0580  -10.9160  -29.1140 C   0  0  0  0  0  0  0  0  0  0  0  0
  -29.3040   -9.9200  -29.9920 C   0  0  0  0  0  0  0  0  0  0  0  0
  -29.0890   -3.8940  -28.7320 C   0  0  0  0  0  0  0  0  0  0  0  0
  1  2  2  0
  1  6  1  0
  1  3  1  0
  2  4  1  0
  8  3  1  6
  4  5  2  0
  5  6  1  0
  6  7  1  0
  8 13  1  0
  8  9  1  0
  9 10  1  0
 10 11  1  0
 11 12  1  0
 12 13  1  0
  7 14  1  0
M  END
>  <name>  (315) 
Car Nac Nd0 Car Nac Nac Cs3 C3r C3r O_a C3r C3r C3r Cs3

>  <indices>  (315) 
[0, 1, 2]

>  <tasks>  (315) 
probe_placing close_aromatic_ring close_aromatic_ring close_aromatic_ring ring_built build_to_Nac build_to_Nd0 close_aliphatic_ring close_aliphatic_ring close_aliphatic_ring close_aliphatic_ring close_aliphatic_ring

>  <prot_clashes>  (315) 
6

>  <NBS phar>  (315) 
0.04

>  <NBS_non-phar>  (315) 
0.43116889681134907

>  <NBS>  (315) 
0.47116889681134905

>  <source_stage>  (315) 
scored

>  <source_iter>  (315) 
11

>  <source_parent_mol>  (315) 
2

>  <source_scenario>  (315) 
1 2 3 1 0 7 1 1 3 0 2

>  <source_rank_in_scored_call>  (315) 
119

>  <source_current_task>  (315) 
no_task

>  <scenario>  (315) 
1 2 3 1 0 7 1 1 3 0

>  <protected_ring_attachments>  (315) 
3,1,0,2|1,0,2;4,5,0,2|5,0,2;9,8,7,2|8,7,2;11,12,7,2|12,7,2

>  <current_task>  (315) 
no_task

>  <rotatable_bond_torsions>  (315) 
1,0,2,7;0,2,7,8

$$$$

     RDKit          3D

 14 15  0  0  0  0  0  0  0  0999 V2000
  -27.8780   -7.0810  -30.8400 C   0  0  0  0  0  0  0  0  0  0  0  0
  -27.6200   -6.7530  -32.1380 N   0  0  0  0  0  0  0  0  0  0  0  0
  -27.5080   -8.4380  -30.3100 N   0  0  0  0  0  0  0  0  0  0  0  0
  -28.0150   -5.4840  -32.3410 C   0  0  0  0  0  0  0  0  0  0  0  0
  -28.5170   -5.0370  -31.1560 N   0  0  0  0  0  0  0  0  0  0  0  0
  -28.4350   -6.0020  -30.2580 N   0  0  0  0  0  0  0  0  0  0  0  0
  -28.5860   -6.0540  -28.7790 C   0  0  0  0  0  0  0  0  0  0  0  0
  -27.9230   -9.5030  -30.3170 C   0  0  1  0  0  0  0  0  0  0  0  0
  -28.5000  -10.2780  -29.1670 C   0  0  0  0  0  0  0  0  0  0  0  0
  -28.4690  -11.6350  -29.4220 O   0  0  0  0  0  0  0  0  0  0  0  0
  -29.1890  -11.9850  -30.5430 C   0  0  0  0  0  0  0  0  0  0  0  0
  -28.6460  -11.2940  -31.7630 C   0  0  0  0  0  0  0  0  0  0  0  0
  -28.7460   -9.8110  -31.5340 C   0  0  0  0  0  0  0  0  0  0  0  0
  -28.4380  -11.7010  -32.8220 O   0  0  0  0  0  0  0  0  0  0  0  0
  1  2  2  0
  1  3  1  0
  1  6  1  0
  2  4  1  0
  8  3  1  1
  4  5  2  0
  5  6  1  0
  6  7  1  0
  8 13  1  0
  8  9  1  0
  9 10  1  0
 10 11  1  0
 11 12  1  0
 12 14  2  0
 12 13  1  0
M  END
>  <name>  (316) 
Car Nac Nd0 Car Nac Nac Cs3 C3r C3r O_a C3r C2r C3r .=O

>  <indices>  (316) 
[0, 1, 2]

>  <tasks>  (316) 
probe_placing close_aromatic_ring close_aromatic_ring close_aromatic_ring ring_built build_to_Nac build_to_Nd0 close_aliphatic_ring close_aliphatic_ring close_aliphatic_ring close_aliphatic_ring close_aliphatic_ring

>  <prot_clashes>  (316) 
3

>  <NBS phar>  (316) 
0.2

>  <NBS_non-phar>  (316) 
0.4309561252593994

>  <NBS>  (316) 
0.6309561252593994

>  <source_stage>  (316) 
scored

>  <source_iter>  (316) 
11

>  <source_parent_mol>  (316) 
0

>  <source_scenario>  (316) 
1 2 3 1 0 7 1 1 3 2 0

>  <source_rank_in_scored_call>  (316) 
0

>  <source_current_task>  (316) 
build_DB_to_Cs2

>  <scenario>  (316) 
1 2 3 1 0 7 1 1 3 2

>  <protected_ring_attachments>  (316) 
3,1,0,2|1,0,2;4,5,0,2|5,0,2;9,8,7,2|8,7,2;11,12,7,2|12,7,2

>  <current_task>  (316) 
no_task

>  <rotatable_bond_torsions>  (316) 
1,0,2,7;0,2,7,8

$$$$

     RDKit          3D

 14 15  0  0  0  0  0  0  0  0999 V2000
  -27.8680   -7.0900  -30.8380 C   0  0  0  0  0  0  0  0  0  0  0  0
  -27.6210   -6.7650  -32.1400 N   0  0  0  0  0  0  0  0  0  0  0  0
  -27.5340   -8.4610  -30.3200 N   0  0  0  0  0  0  0  0  0  0  0  0
  -27.9780   -5.4830  -32.3310 C   0  0  0  0  0  0  0  0  0  0  0  0
  -28.4450   -5.0250  -31.1370 N   0  0  0  0  0  0  0  0  0  0  0  0
  -28.3800   -5.9950  -30.2430 N   0  0  0  0  0  0  0  0  0  0  0  0
  -28.5080   -6.0490  -28.7630 C   0  0  0  0  0  0  0  0  0  0  0  0
  -27.9840   -9.5110  -30.3230 C   0  0  1  0  0  0  0  0  0  0  0  0
  -28.5680  -10.2710  -29.1670 C   0  0  0  0  0  0  0  0  0  0  0  0
  -28.5850  -11.6280  -29.4280 O   0  0  0  0  0  0  0  0  0  0  0  0
  -29.3350  -11.9500  -30.5380 C   0  0  0  0  0  0  0  0  0  0  0  0
  -28.7890  -11.2720  -31.7640 C   0  0  0  0  0  0  0  0  0  0  0  0
  -28.8370   -9.7880  -31.5280 C   0  0  0  0  0  0  0  0  0  0  0  0
  -28.4380  -11.7870  -32.6120 O   0  0  0  0  0  0  0  0  0  0  0  0
  1  2  2  0
  1  3  1  0
  1  6  1  0
  2  4  1  0
  8  3  1  1
  4  5  2  0
  5  6  1  0
  6  7  1  0
  8 13  1  0
  8  9  1  0
  9 10  1  0
 10 11  1  0
 11 12  1  0
 12 14  2  0
 12 13  1  0
M  END
>  <name>  (317) 
Car Nac Nd0 Car Nac Nac Cs3 C3r C3r O_a C3r C2r C3r .=O

>  <indices>  (317) 
[0, 1, 2]

>  <tasks>  (317) 
probe_placing close_aromatic_ring close_aromatic_ring close_aromatic_ring ring_built build_to_Nac build_to_Nd0 close_aliphatic_ring close_aliphatic_ring close_aliphatic_ring close_aliphatic_ring close_aliphatic_ring

>  <prot_clashes>  (317) 
3

>  <NBS phar>  (317) 
0.12

>  <NBS_non-phar>  (317) 
0.4693170615604946

>  <NBS>  (317) 
0.5893170615604946

>  <source_stage>  (317) 
scored

>  <source_iter>  (317) 
11

>  <source_parent_mol>  (317) 
0

>  <source_scenario>  (317) 
1 2 3 1 0 7 1 1 3 2 0

>  <source_rank_in_scored_call>  (317) 
1

>  <source_current_task>  (317) 
build_DB_to_Cs2

>  <scenario>  (317) 
1 2 3 1 0 7 1 1 3 2

>  <protected_ring_attachments>  (317) 
3,1,0,2|1,0,2;4,5,0,2|5,0,2;9,8,7,2|8,7,2;11,12,7,2|12,7,2

>  <current_task>  (317) 
no_task

>  <rotatable_bond_torsions>  (317) 
1,0,2,7;0,2,7,8

$$$$

     RDKit          3D

 15 16  0  0  0  0  0  0  0  0999 V2000
  -27.7790   -6.8270  -30.8240 C   0  0  0  0  0  0  0  0  0  0  0  0
  -27.5660   -6.7160  -32.1660 N   0  0  0  0  0  0  0  0  0  0  0  0
  -27.6260   -8.1550  -30.1370 N   0  0  0  0  0  0  0  0  0  0  0  0
  -27.7350   -5.4290  -32.5170 C   0  0  0  0  0  0  0  0  0  0  0  0
  -28.0530   -4.7520  -31.3780 N   0  0  0  0  0  0  0  0  0  0  0  0
  -28.0820   -5.5980  -30.3640 N   0  0  0  0  0  0  0  0  0  0  0  0
  -28.1260   -5.4400  -28.8850 C   0  0  0  0  0  0  0  0  0  0  0  0
  -28.2300   -9.1130  -29.9790 C   0  0  1  0  0  0  0  0  0  0  0  0
  -28.8500   -9.6160  -28.7070 C   0  0  0  0  0  0  0  0  0  0  0  0
  -29.0890  -10.9740  -28.7790 O   0  0  0  0  0  0  0  0  0  0  0  0
  -29.9460  -11.3130  -29.8040 C   0  0  0  0  0  0  0  0  0  0  0  0
  -29.3800  -10.8930  -31.1320 C   0  0  0  0  0  0  0  0  0  0  0  0
  -29.1870   -9.4020  -31.0990 C   0  0  0  0  0  0  0  0  0  0  0  0
  -29.3320  -11.4590  -32.1360 O   0  0  0  0  0  0  0  0  0  0  0  0
  -29.5670   -5.3410  -28.4640 C   0  0  0  0  0  0  0  0  0  0  0  0
  1  2  2  0
  1  6  1  0
  1  3  1  0
  2  4  1  0
  8  3  1  1
  4  5  2  0
  5  6  1  0
  6  7  1  0
  8 13  1  0
  8  9  1  0
  9 10  1  0
 10 11  1  0
 11 12  1  0
 12 14  2  0
 12 13  1  0
  7 15  1  0
M  END
>  <name>  (318) 
Car Nac Nd0 Car Nac Nac Cs3 C3r C3r O_a C3r C2r C3r .=O Cs3

>  <indices>  (318) 
[0, 1, 2]

>  <tasks>  (318) 
probe_placing close_aromatic_ring close_aromatic_ring close_aromatic_ring ring_built build_to_Nac build_to_Nd0 close_aliphatic_ring close_aliphatic_ring close_aliphatic_ring close_aliphatic_ring close_aliphatic_ring build_DB_to_Cs2

>  <prot_clashes>  (318) 
10

>  <NBS phar>  (318) 
0.36000000000000004

>  <NBS_non-phar>  (318) 
0.4803611437479655

>  <NBS>  (318) 
0.8403611437479656

>  <source_stage>  (318) 
scored

>  <source_iter>  (318) 
12

>  <source_parent_mol>  (318) 
0

>  <source_scenario>  (318) 
1 2 3 1 0 7 1 1 3 2 0 0

>  <source_rank_in_scored_call>  (318) 
2

>  <source_current_task>  (318) 
no_task

>  <scenario>  (318) 
1 2 3 1 0 7 1 1 3 2 0

>  <protected_ring_attachments>  (318) 
3,1,0,2|1,0,2;4,5,0,2|5,0,2;9,8,7,2|8,7,2;11,12,7,2|12,7,2

>  <current_task>  (318) 
no_task

>  <rotatable_bond_torsions>  (318) 
1,0,2,7;0,2,7,8

$$$$

     RDKit          3D

 15 16  0  0  0  0  0  0  0  0999 V2000
  -27.7750   -6.7800  -30.8260 C   0  0  0  0  0  0  0  0  0  0  0  0
  -27.5790   -6.6640  -32.1700 N   0  0  0  0  0  0  0  0  0  0  0  0
  -27.6110   -8.1110  -30.1450 N   0  0  0  0  0  0  0  0  0  0  0  0
  -27.7550   -5.3760  -32.5140 C   0  0  0  0  0  0  0  0  0  0  0  0
  -28.0600   -4.7040  -31.3680 N   0  0  0  0  0  0  0  0  0  0  0  0
  -28.0740   -5.5540  -30.3570 N   0  0  0  0  0  0  0  0  0  0  0  0
  -28.0990   -5.4010  -28.8780 C   0  0  0  0  0  0  0  0  0  0  0  0
  -28.2100   -9.0700  -29.9830 C   0  0  1  0  0  0  0  0  0  0  0  0
  -28.8130   -9.5790  -28.7050 C   0  0  0  0  0  0  0  0  0  0  0  0
  -29.0500  -10.9380  -28.7790 O   0  0  0  0  0  0  0  0  0  0  0  0
  -29.9190  -11.2740  -29.7940 C   0  0  0  0  0  0  0  0  0  0  0  0
  -29.3710  -10.8490  -31.1280 C   0  0  0  0  0  0  0  0  0  0  0  0
  -29.1810   -9.3580  -31.0920 C   0  0  0  0  0  0  0  0  0  0  0  0
  -29.3350  -11.4110  -32.1340 O   0  0  0  0  0  0  0  0  0  0  0  0
  -29.5630   -5.3660  -28.4180 C   0  0  0  0  0  0  0  0  0  0  0  0
  1  2  2  0
  1  6  1  0
  1  3  1  0
  2  4  1  0
  8  3  1  1
  4  5  2  0
  5  6  1  0
  6  7  1  0
  8 13  1  0
  8  9  1  0
  9 10  1  0
 10 11  1  0
 11 12  1  0
 12 14  2  0
 12 13  1  0
  7 15  1  0
M  END
>  <name>  (319) 
Car Nac Nd0 Car Nac Nac Cs3 C3r C3r O_a C3r C2r C3r .=O Cs3

>  <indices>  (319) 
[0, 1, 2]

>  <tasks>  (319) 
probe_placing close_aromatic_ring close_aromatic_ring close_aromatic_ring ring_built build_to_Nac build_to_Nd0 close_aliphatic_ring close_aliphatic_ring close_aliphatic_ring close_aliphatic_ring close_aliphatic_ring build_DB_to_Cs2

>  <prot_clashes>  (319) 
10

>  <NBS phar>  (319) 
0.36000000000000004

>  <NBS_non-phar>  (319) 
0.4800816853841146

>  <NBS>  (319) 
0.8400816853841147

>  <source_stage>  (319) 
scored

>  <source_iter>  (319) 
12

>  <source_parent_mol>  (319) 
0

>  <source_scenario>  (319) 
1 2 3 1 0 7 1 1 3 2 0 0

>  <source_rank_in_scored_call>  (319) 
3

>  <source_current_task>  (319) 
no_task

>  <scenario>  (319) 
1 2 3 1 0 7 1 1 3 2 0

>  <protected_ring_attachments>  (319) 
3,1,0,2|1,0,2;4,5,0,2|5,0,2;9,8,7,2|8,7,2;11,12,7,2|12,7,2

>  <current_task>  (319) 
no_task

>  <rotatable_bond_torsions>  (319) 
1,0,2,7;0,2,7,8

$$$$

     RDKit          3D

 15 16  0  0  0  0  0  0  0  0999 V2000
  -28.0430   -7.0910  -31.0540 C   0  0  0  0  0  0  0  0  0  0  0  0
  -27.6850   -6.8490  -32.3470 N   0  0  0  0  0  0  0  0  0  0  0  0
  -27.7130   -8.4060  -30.4060 N   0  0  0  0  0  0  0  0  0  0  0  0
  -28.0660   -5.6000  -32.6660 C   0  0  0  0  0  0  0  0  0  0  0  0
  -28.6600   -5.0780  -31.5560 N   0  0  0  0  0  0  0  0  0  0  0  0
  -28.6460   -5.9790  -30.5910 N   0  0  0  0  0  0  0  0  0  0  0  0
  -28.9130   -5.9330  -29.1290 C   0  0  0  0  0  0  0  0  0  0  0  0
  -28.1240   -9.4720  -30.3730 C   0  0  1  0  0  0  0  0  0  0  0  0
  -28.7880  -10.1720  -29.2220 C   0  0  0  0  0  0  0  0  0  0  0  0
  -28.7340  -11.5430  -29.3810 O   0  0  0  0  0  0  0  0  0  0  0  0
  -29.3630  -11.9730  -30.5280 C   0  0  0  0  0  0  0  0  0  0  0  0
  -28.7280  -11.3620  -31.7460 C   0  0  0  0  0  0  0  0  0  0  0  0
  -28.8480   -9.8680  -31.6270 C   0  0  0  0  0  0  0  0  0  0  0  0
  -28.4360  -11.8380  -32.7560 O   0  0  0  0  0  0  0  0  0  0  0  0
  -27.6790   -5.4610  -28.3880 C   0  0  0  0  0  0  0  0  0  0  0  0
  1  2  2  0
  1  6  1  0
  1  3  1  0
  2  4  1  0
  8  3  1  1
  4  5  2  0
  5  6  1  0
  6  7  1  0
  8 13  1  0
  8  9  1  0
  9 10  1  0
 10 11  1  0
 11 12  1  0
 12 14  2  0
 12 13  1  0
  7 15  1  0
M  END
>  <name>  (320) 
Car Nac Nd0 Car Nac Nac Cs3 C3r C3r O_a C3r C2r C3r .=O Cs3

>  <indices>  (320) 
[0, 1, 2]

>  <tasks>  (320) 
probe_placing close_aromatic_ring close_aromatic_ring close_aromatic_ring ring_built build_to_Nac build_to_Nd0 close_aliphatic_ring close_aliphatic_ring close_aliphatic_ring close_aliphatic_ring close_aliphatic_ring build_DB_to_Cs2

>  <prot_clashes>  (320) 
6

>  <NBS phar>  (320) 
0.25999999999999995

>  <NBS_non-phar>  (320) 
0.49844913482666015

>  <NBS>  (320) 
0.7584491348266601

>  <source_stage>  (320) 
scored

>  <source_iter>  (320) 
12

>  <source_parent_mol>  (320) 
0

>  <source_scenario>  (320) 
1 2 3 1 0 7 1 1 3 2 0 0

>  <source_rank_in_scored_call>  (320) 
6

>  <source_current_task>  (320) 
no_task

>  <scenario>  (320) 
1 2 3 1 0 7 1 1 3 2 0

>  <protected_ring_attachments>  (320) 
3,1,0,2|1,0,2;4,5,0,2|5,0,2;9,8,7,2|8,7,2;11,12,7,2|12,7,2

>  <current_task>  (320) 
no_task

>  <rotatable_bond_torsions>  (320) 
1,0,2,7;0,2,7,8

$$$$

     RDKit          3D

 15 16  0  0  0  0  0  0  0  0999 V2000
  -27.7860   -6.9030  -30.8300 C   0  0  0  0  0  0  0  0  0  0  0  0
  -27.5830   -6.7800  -32.1730 N   0  0  0  0  0  0  0  0  0  0  0  0
  -27.6240   -8.2360  -30.1540 N   0  0  0  0  0  0  0  0  0  0  0  0
  -27.7580   -5.4910  -32.5120 C   0  0  0  0  0  0  0  0  0  0  0  0
  -28.0700   -4.8250  -31.3650 N   0  0  0  0  0  0  0  0  0  0  0  0
  -28.0880   -5.6790  -30.3580 N   0  0  0  0  0  0  0  0  0  0  0  0
  -28.1220   -5.5320  -28.8780 C   0  0  0  0  0  0  0  0  0  0  0  0
  -28.2240   -9.1970  -30.0000 C   0  0  1  0  0  0  0  0  0  0  0  0
  -28.8330   -9.7110  -28.7270 C   0  0  0  0  0  0  0  0  0  0  0  0
  -29.0690  -11.0700  -28.8080 O   0  0  0  0  0  0  0  0  0  0  0  0
  -29.9320  -11.4030  -29.8290 C   0  0  0  0  0  0  0  0  0  0  0  0
  -29.3770  -10.9710  -31.1580 C   0  0  0  0  0  0  0  0  0  0  0  0
  -29.1880   -9.4800  -31.1150 C   0  0  0  0  0  0  0  0  0  0  0  0
  -29.3360  -11.5290  -32.1670 O   0  0  0  0  0  0  0  0  0  0  0  0
  -29.5640   -5.0660  -28.5220 C   0  0  0  0  0  0  0  0  0  0  0  0
  1  2  2  0
  1  6  1  0
  1  3  1  0
  2  4  1  0
  8  3  1  1
  4  5  2  0
  5  6  1  0
  6  7  1  0
  8 13  1  0
  8  9  1  0
  9 10  1  0
 10 11  1  0
 11 12  1  0
 12 14  2  0
 12 13  1  0
  7 15  1  0
M  END
>  <name>  (321) 
Car Nac Nd0 Car Nac Nac Cs3 C3r C3r O_a C3r C2r C3r .=O Cs3

>  <indices>  (321) 
[0, 1, 2]

>  <tasks>  (321) 
probe_placing close_aromatic_ring close_aromatic_ring close_aromatic_ring ring_built build_to_Nac build_to_Nd0 close_aliphatic_ring close_aliphatic_ring close_aliphatic_ring close_aliphatic_ring close_aliphatic_ring build_DB_to_Cs2

>  <prot_clashes>  (321) 
10

>  <NBS phar>  (321) 
0.24

>  <NBS_non-phar>  (321) 
0.44334774017333983

>  <NBS>  (321) 
0.6833477401733399

>  <source_stage>  (321) 
scored

>  <source_iter>  (321) 
12

>  <source_parent_mol>  (321) 
0

>  <source_scenario>  (321) 
1 2 3 1 0 7 1 1 3 2 0 0

>  <source_rank_in_scored_call>  (321) 
34

>  <source_current_task>  (321) 
no_task

>  <scenario>  (321) 
1 2 3 1 0 7 1 1 3 2 0

>  <protected_ring_attachments>  (321) 
3,1,0,2|1,0,2;4,5,0,2|5,0,2;9,8,7,2|8,7,2;11,12,7,2|12,7,2

>  <current_task>  (321) 
no_task

>  <rotatable_bond_torsions>  (321) 
1,0,2,7;0,2,7,8

$$$$

     RDKit          3D

 15 16  0  0  0  0  0  0  0  0999 V2000
  -27.7070   -6.9680  -31.0450 C   0  0  0  0  0  0  0  0  0  0  0  0
  -27.6880   -6.7420  -32.3890 N   0  0  0  0  0  0  0  0  0  0  0  0
  -27.3920   -8.3320  -30.4970 N   0  0  0  0  0  0  0  0  0  0  0  0
  -27.9710   -5.4460  -32.6050 C   0  0  0  0  0  0  0  0  0  0  0  0
  -28.1620   -4.8790  -31.3810 N   0  0  0  0  0  0  0  0  0  0  0  0
  -28.0060   -5.7990  -30.4470 N   0  0  0  0  0  0  0  0  0  0  0  0
  -27.8520   -5.7560  -28.9680 C   0  0  0  0  0  0  0  0  0  0  0  0
  -27.9170   -9.3350  -30.3410 C   0  0  1  0  0  0  0  0  0  0  0  0
  -28.3270   -9.9710  -29.0430 C   0  0  0  0  0  0  0  0  0  0  0  0
  -28.5040  -11.3320  -29.1950 O   0  0  0  0  0  0  0  0  0  0  0  0
  -29.4750  -11.6460  -30.1210 C   0  0  0  0  0  0  0  0  0  0  0  0
  -29.1220  -11.0920  -31.4730 C   0  0  0  0  0  0  0  0  0  0  0  0
  -29.0040   -9.5990  -31.3420 C   0  0  0  0  0  0  0  0  0  0  0  0
  -29.1850  -11.5760  -32.5180 O   0  0  0  0  0  0  0  0  0  0  0  0
  -29.1830   -6.1700  -28.3900 C   0  0  0  0  0  0  0  0  0  0  0  0
  1  2  2  0
  1  3  1  0
  1  6  1  0
  2  4  1  0
  8  3  1  1
  4  5  2  0
  5  6  1  0
  6  7  1  0
  8 13  1  0
  8  9  1  0
  9 10  1  0
 10 11  1  0
 11 12  1  0
 12 14  2  0
 12 13  1  0
  7 15  1  0
M  END
>  <name>  (322) 
Car Nac Nd0 Car Nac Nac Cs3 C3r C3r O_a C3r C2r C3r .=O Cs3

>  <indices>  (322) 
[0, 1, 2]

>  <tasks>  (322) 
probe_placing close_aromatic_ring close_aromatic_ring close_aromatic_ring ring_built build_to_Nac build_to_Nd0 close_aliphatic_ring close_aliphatic_ring close_aliphatic_ring close_aliphatic_ring close_aliphatic_ring build_DB_to_Cs2

>  <prot_clashes>  (322) 
7

>  <NBS phar>  (322) 
0.24

>  <NBS_non-phar>  (322) 
0.43518886566162107

>  <NBS>  (322) 
0.6751888656616211

>  <source_stage>  (322) 
scored

>  <source_iter>  (322) 
12

>  <source_parent_mol>  (322) 
0

>  <source_scenario>  (322) 
1 2 3 1 0 7 1 1 3 2 0 0

>  <source_rank_in_scored_call>  (322) 
50

>  <source_current_task>  (322) 
no_task

>  <scenario>  (322) 
1 2 3 1 0 7 1 1 3 2 0

>  <protected_ring_attachments>  (322) 
3,1,0,2|1,0,2;4,5,0,2|5,0,2;9,8,7,2|8,7,2;11,12,7,2|12,7,2

>  <current_task>  (322) 
no_task

>  <rotatable_bond_torsions>  (322) 
1,0,2,7;0,2,7,8

$$$$

     RDKit          3D

 15 16  0  0  0  0  0  0  0  0999 V2000
  -27.8770   -7.0860  -30.8470 C   0  0  0  0  0  0  0  0  0  0  0  0
  -27.6240   -6.7540  -32.1450 N   0  0  0  0  0  0  0  0  0  0  0  0
  -27.5040   -8.4440  -30.3210 N   0  0  0  0  0  0  0  0  0  0  0  0
  -28.0210   -5.4850  -32.3440 C   0  0  0  0  0  0  0  0  0  0  0  0
  -28.5200   -5.0420  -31.1560 N   0  0  0  0  0  0  0  0  0  0  0  0
  -28.4340   -6.0090  -30.2600 N   0  0  0  0  0  0  0  0  0  0  0  0
  -28.5800   -6.0640  -28.7810 C   0  0  0  0  0  0  0  0  0  0  0  0
  -27.9180   -9.5090  -30.3290 C   0  0  1  0  0  0  0  0  0  0  0  0
  -28.4910  -10.2870  -29.1790 C   0  0  0  0  0  0  0  0  0  0  0  0
  -28.4590  -11.6440  -29.4370 O   0  0  0  0  0  0  0  0  0  0  0  0
  -29.1820  -11.9920  -30.5570 C   0  0  0  0  0  0  0  0  0  0  0  0
  -28.6440  -11.2970  -31.7770 C   0  0  0  0  0  0  0  0  0  0  0  0
  -28.7440   -9.8150  -31.5440 C   0  0  0  0  0  0  0  0  0  0  0  0
  -28.4380  -11.7020  -32.8380 O   0  0  0  0  0  0  0  0  0  0  0  0
  -28.4360   -7.3680  -28.0830 C   0  0  0  0  0  0  0  0  0  0  0  0
  1  2  2  0
  1  3  1  0
  1  6  1  0
  2  4  1  0
  8  3  1  1
  4  5  2  0
  5  6  1  0
  6  7  1  0
  8 13  1  0
  8  9  1  0
  9 10  1  0
 10 11  1  0
 11 12  1  0
 12 14  2  0
 12 13  1  0
  7 15  1  0
M  END
>  <name>  (323) 
Car Nac Nd0 Car Nac Nac Cs3 C3r C3r O_a C3r C2r C3r .=O Cs3

>  <indices>  (323) 
[0, 1, 2]

>  <tasks>  (323) 
probe_placing close_aromatic_ring close_aromatic_ring close_aromatic_ring ring_built build_to_Nac build_to_Nd0 close_aliphatic_ring close_aliphatic_ring close_aliphatic_ring close_aliphatic_ring close_aliphatic_ring build_DB_to_Cs2

>  <prot_clashes>  (323) 
4

>  <NBS phar>  (323) 
0.2

>  <NBS_non-phar>  (323) 
0.4441318194071452

>  <NBS>  (323) 
0.6441318194071453

>  <source_stage>  (323) 
scored

>  <source_iter>  (323) 
12

>  <source_parent_mol>  (323) 
0

>  <source_scenario>  (323) 
1 2 3 1 0 7 1 1 3 2 0 0

>  <source_rank_in_scored_call>  (323) 
83

>  <source_current_task>  (323) 
no_task

>  <scenario>  (323) 
1 2 3 1 0 7 1 1 3 2 0

>  <protected_ring_attachments>  (323) 
3,1,0,2|1,0,2;4,5,0,2|5,0,2;9,8,7,2|8,7,2;11,12,7,2|12,7,2

>  <current_task>  (323) 
no_task

>  <rotatable_bond_torsions>  (323) 
1,0,2,7;0,2,7,8

$$$$

     RDKit          3D

 15 16  0  0  0  0  0  0  0  0999 V2000
  -27.8760   -7.0990  -30.8510 C   0  0  0  0  0  0  0  0  0  0  0  0
  -27.6390   -6.7510  -32.1480 N   0  0  0  0  0  0  0  0  0  0  0  0
  -27.4910   -8.4610  -30.3450 N   0  0  0  0  0  0  0  0  0  0  0  0
  -28.0430   -5.4820  -32.3280 C   0  0  0  0  0  0  0  0  0  0  0  0
  -28.5310   -5.0540  -31.1300 N   0  0  0  0  0  0  0  0  0  0  0  0
  -28.4310   -6.0310  -30.2470 N   0  0  0  0  0  0  0  0  0  0  0  0
  -28.5600   -6.1040  -28.7670 C   0  0  0  0  0  0  0  0  0  0  0  0
  -27.9010   -9.5280  -30.3610 C   0  0  1  0  0  0  0  0  0  0  0  0
  -28.4570  -10.3210  -29.2140 C   0  0  0  0  0  0  0  0  0  0  0  0
  -28.4220  -11.6750  -29.4880 O   0  0  0  0  0  0  0  0  0  0  0  0
  -29.1560  -12.0130  -30.6030 C   0  0  0  0  0  0  0  0  0  0  0  0
  -28.6340  -11.3030  -31.8210 C   0  0  0  0  0  0  0  0  0  0  0  0
  -28.7390   -9.8240  -31.5700 C   0  0  0  0  0  0  0  0  0  0  0  0
  -28.4390  -11.6940  -32.8880 O   0  0  0  0  0  0  0  0  0  0  0  0
  -28.2010   -7.4060  -28.0460 C   0  0  0  0  0  0  0  0  0  0  0  0
  1  2  2  0
  1  3  1  0
  1  6  1  0
  2  4  1  0
  8  3  1  1
  4  5  2  0
  5  6  1  0
  6  7  1  0
  8 13  1  0
  8  9  1  0
  9 10  1  0
 10 11  1  0
 11 12  1  0
 12 14  2  0
 12 13  1  0
  7 15  1  0
M  END
>  <name>  (324) 
Car Nac Nd0 Car Nac Nac Cs3 C3r C3r O_a C3r C2r C3r .=O Cs3

>  <indices>  (324) 
[0, 1, 2]

>  <tasks>  (324) 
probe_placing close_aromatic_ring close_aromatic_ring close_aromatic_ring ring_built build_to_Nac build_to_Nd0 close_aliphatic_ring close_aliphatic_ring close_aliphatic_ring close_aliphatic_ring close_aliphatic_ring build_DB_to_Cs2

>  <prot_clashes>  (324) 
6

>  <NBS phar>  (324) 
0.2

>  <NBS_non-phar>  (324) 
0.441987133026123

>  <NBS>  (324) 
0.6419871330261231

>  <source_stage>  (324) 
scored

>  <source_iter>  (324) 
12

>  <source_parent_mol>  (324) 
0

>  <source_scenario>  (324) 
1 2 3 1 0 7 1 1 3 2 0 0

>  <source_rank_in_scored_call>  (324) 
84

>  <source_current_task>  (324) 
no_task

>  <scenario>  (324) 
1 2 3 1 0 7 1 1 3 2 0

>  <protected_ring_attachments>  (324) 
3,1,0,2|1,0,2;4,5,0,2|5,0,2;9,8,7,2|8,7,2;11,12,7,2|12,7,2

>  <current_task>  (324) 
no_task

>  <rotatable_bond_torsions>  (324) 
1,0,2,7;0,2,7,8

$$$$

     RDKit          3D

 15 16  0  0  0  0  0  0  0  0999 V2000
  -27.9810   -6.7010  -30.8390 C   0  0  0  0  0  0  0  0  0  0  0  0
  -27.3540   -6.6140  -32.0470 N   0  0  0  0  0  0  0  0  0  0  0  0
  -27.9560   -7.9850  -30.0590 N   0  0  0  0  0  0  0  0  0  0  0  0
  -27.4990   -5.3610  -32.5110 C   0  0  0  0  0  0  0  0  0  0  0  0
  -28.2200   -4.6800  -31.5770 N   0  0  0  0  0  0  0  0  0  0  0  0
  -28.5100   -5.4910  -30.5760 N   0  0  0  0  0  0  0  0  0  0  0  0
  -29.0420   -5.2880  -29.2010 C   0  0  0  0  0  0  0  0  0  0  0  0
  -28.5030   -8.9890  -30.0440 C   0  0  1  0  0  0  0  0  0  0  0  0
  -29.4600   -9.5060  -29.0090 C   0  0  0  0  0  0  0  0  0  0  0  0
  -29.5580  -10.8820  -29.0700 O   0  0  0  0  0  0  0  0  0  0  0  0
  -30.0070  -11.3320  -30.2920 C   0  0  0  0  0  0  0  0  0  0  0  0
  -29.0760  -10.9060  -31.3930 C   0  0  0  0  0  0  0  0  0  0  0  0
  -29.0200   -9.4030  -31.3910 C   0  0  0  0  0  0  0  0  0  0  0  0
  -28.6630  -11.4980  -32.2930 O   0  0  0  0  0  0  0  0  0  0  0  0
  -28.3850   -4.0960  -28.4080 C   0  0  0  0  0  0  0  0  0  0  0  0
  1  2  2  0
  1  6  1  0
  1  3  1  0
  2  4  1  0
  8  3  1  6
  4  5  2  0
  5  6  1  0
  6  7  1  0
  8 13  1  0
  8  9  1  0
  9 10  1  0
 10 11  1  0
 11 12  1  0
 12 14  2  0
 12 13  1  0
  7 15  1  0
M  END
>  <name>  (325) 
Car Nac Nd0 Car Nac Nac Cs3 C3r C3r O_a C3r C2r C3r .=O Cs3

>  <indices>  (325) 
[0, 1, 2]

>  <tasks>  (325) 
probe_placing close_aromatic_ring close_aromatic_ring close_aromatic_ring ring_built build_to_Nac build_to_Nd0 close_aliphatic_ring close_aliphatic_ring close_aliphatic_ring close_aliphatic_ring close_aliphatic_ring build_DB_to_Cs2

>  <prot_clashes>  (325) 
6

>  <NBS phar>  (325) 
0.15999999999999998

>  <NBS_non-phar>  (325) 
0.4703261693318685

>  <NBS>  (325) 
0.6303261693318685

>  <source_stage>  (325) 
scored

>  <source_iter>  (325) 
12

>  <source_parent_mol>  (325) 
0

>  <source_scenario>  (325) 
1 2 3 1 0 7 1 1 3 2 0 0

>  <source_rank_in_scored_call>  (325) 
94

>  <source_current_task>  (325) 
no_task

>  <scenario>  (325) 
1 2 3 1 0 7 1 1 3 2 0

>  <protected_ring_attachments>  (325) 
3,1,0,2|1,0,2;4,5,0,2|5,0,2;9,8,7,2|8,7,2;11,12,7,2|12,7,2

>  <current_task>  (325) 
no_task

>  <rotatable_bond_torsions>  (325) 
1,0,2,7;0,2,7,8

$$$$

     RDKit          3D

 15 16  0  0  0  0  0  0  0  0999 V2000
  -27.9570   -7.0070  -30.8710 C   0  0  0  0  0  0  0  0  0  0  0  0
  -27.5890   -6.8310  -32.1720 N   0  0  0  0  0  0  0  0  0  0  0  0
  -27.8000   -8.3480  -30.2100 N   0  0  0  0  0  0  0  0  0  0  0  0
  -27.8000   -5.5450  -32.5010 C   0  0  0  0  0  0  0  0  0  0  0  0
  -28.2990   -4.9340  -31.3910 N   0  0  0  0  0  0  0  0  0  0  0  0
  -28.3950   -5.8180  -30.4140 N   0  0  0  0  0  0  0  0  0  0  0  0
  -28.6290   -5.7200  -28.9490 C   0  0  0  0  0  0  0  0  0  0  0  0
  -28.3530   -9.3470  -30.1580 C   0  0  1  0  0  0  0  0  0  0  0  0
  -29.0880   -9.9370  -28.9890 C   0  0  0  0  0  0  0  0  0  0  0  0
  -29.2260  -11.3040  -29.1310 O   0  0  0  0  0  0  0  0  0  0  0  0
  -29.9260  -11.6560  -30.2640 C   0  0  0  0  0  0  0  0  0  0  0  0
  -29.2310  -11.1510  -31.4980 C   0  0  0  0  0  0  0  0  0  0  0  0
  -29.1440   -9.6530  -31.3960 C   0  0  0  0  0  0  0  0  0  0  0  0
  -29.0240  -11.6740  -32.5050 O   0  0  0  0  0  0  0  0  0  0  0  0
  -29.5630   -4.5800  -28.5980 C   0  0  0  0  0  0  0  0  0  0  0  0
  1  2  2  0
  1  6  1  0
  1  3  1  0
  2  4  1  0
  8  3  1  1
  4  5  2  0
  5  6  1  0
  6  7  1  0
  8 13  1  0
  8  9  1  0
  9 10  1  0
 10 11  1  0
 11 12  1  0
 12 14  2  0
 12 13  1  0
  7 15  1  0
M  END
>  <name>  (326) 
Car Nac Nd0 Car Nac Nac Cs3 C3r C3r O_a C3r C2r C3r .=O Cs3

>  <indices>  (326) 
[0, 1, 2]

>  <tasks>  (326) 
probe_placing close_aromatic_ring close_aromatic_ring close_aromatic_ring ring_built build_to_Nac build_to_Nd0 close_aliphatic_ring close_aliphatic_ring close_aliphatic_ring close_aliphatic_ring close_aliphatic_ring build_DB_to_Cs2

>  <prot_clashes>  (326) 
7

>  <NBS phar>  (326) 
0.22000000000000003

>  <NBS_non-phar>  (326) 
0.3863464673360189

>  <NBS>  (326) 
0.6063464673360189

>  <source_stage>  (326) 
scored

>  <source_iter>  (326) 
12

>  <source_parent_mol>  (326) 
0

>  <source_scenario>  (326) 
1 2 3 1 0 7 1 1 3 2 0 0

>  <source_rank_in_scored_call>  (326) 
111

>  <source_current_task>  (326) 
no_task

>  <scenario>  (326) 
1 2 3 1 0 7 1 1 3 2 0

>  <protected_ring_attachments>  (326) 
3,1,0,2|1,0,2;4,5,0,2|5,0,2;9,8,7,2|8,7,2;11,12,7,2|12,7,2

>  <current_task>  (326) 
no_task

>  <rotatable_bond_torsions>  (326) 
1,0,2,7;0,2,7,8

$$$$

     RDKit          3D

 15 16  0  0  0  0  0  0  0  0999 V2000
  -27.9230   -6.8110  -30.8730 C   0  0  0  0  0  0  0  0  0  0  0  0
  -27.4220   -6.6270  -32.1280 N   0  0  0  0  0  0  0  0  0  0  0  0
  -27.7560   -8.1310  -30.1740 N   0  0  0  0  0  0  0  0  0  0  0  0
  -27.6770   -5.3610  -32.5030 C   0  0  0  0  0  0  0  0  0  0  0  0
  -28.3370   -4.7720  -31.4680 N   0  0  0  0  0  0  0  0  0  0  0  0
  -28.4850   -5.6490  -30.4910 N   0  0  0  0  0  0  0  0  0  0  0  0
  -28.8890   -5.5480  -29.0630 C   0  0  0  0  0  0  0  0  0  0  0  0
  -28.2450   -9.1640  -30.1640 C   0  0  1  0  0  0  0  0  0  0  0  0
  -29.0680   -9.7870  -29.0740 C   0  0  0  0  0  0  0  0  0  0  0  0
  -29.1000  -11.1620  -29.2040 O   0  0  0  0  0  0  0  0  0  0  0  0
  -29.6440  -11.5730  -30.4010 C   0  0  0  0  0  0  0  0  0  0  0  0
  -28.8490  -11.0380  -31.5600 C   0  0  0  0  0  0  0  0  0  0  0  0
  -28.8700   -9.5360  -31.4770 C   0  0  0  0  0  0  0  0  0  0  0  0
  -28.4960  -11.5570  -32.5270 O   0  0  0  0  0  0  0  0  0  0  0  0
  -28.7840   -4.0120  -28.6560 C   0  0  0  0  0  0  0  0  0  0  0  0
  1  2  2  0
  1  6  1  0
  1  3  1  0
  2  4  1  0
  8  3  1  1
  4  5  2  0
  5  6  1  0
  6  7  1  0
  8 13  1  0
  8  9  1  0
  9 10  1  0
 10 11  1  0
 11 12  1  0
 12 14  2  0
 12 13  1  0
  7 15  1  0
M  END
>  <name>  (327) 
Car Nac Nd0 Car Nac Nac Cs3 C3r C3r O_a C3r C2r C3r .=O Cs3

>  <indices>  (327) 
[0, 1, 2]

>  <tasks>  (327) 
probe_placing close_aromatic_ring close_aromatic_ring close_aromatic_ring ring_built build_to_Nac build_to_Nd0 close_aliphatic_ring close_aliphatic_ring close_aliphatic_ring close_aliphatic_ring close_aliphatic_ring build_DB_to_Cs2

>  <prot_clashes>  (327) 
5

>  <NBS phar>  (327) 
0.15999999999999998

>  <NBS_non-phar>  (327) 
0.4070745468139648

>  <NBS>  (327) 
0.5670745468139649

>  <source_stage>  (327) 
scored

>  <source_iter>  (327) 
12

>  <source_parent_mol>  (327) 
0

>  <source_scenario>  (327) 
1 2 3 1 0 7 1 1 3 2 0 0

>  <source_rank_in_scored_call>  (327) 
129

>  <source_current_task>  (327) 
no_task

>  <scenario>  (327) 
1 2 3 1 0 7 1 1 3 2 0

>  <protected_ring_attachments>  (327) 
3,1,0,2|1,0,2;4,5,0,2|5,0,2;9,8,7,2|8,7,2;11,12,7,2|12,7,2

>  <current_task>  (327) 
no_task

>  <rotatable_bond_torsions>  (327) 
1,0,2,7;0,2,7,8

$$$$

     RDKit          3D

 15 16  0  0  0  0  0  0  0  0999 V2000
  -27.9540   -6.7670  -30.8780 C   0  0  0  0  0  0  0  0  0  0  0  0
  -27.4050   -6.5880  -32.1130 N   0  0  0  0  0  0  0  0  0  0  0  0
  -27.8200   -8.0860  -30.1700 N   0  0  0  0  0  0  0  0  0  0  0  0
  -27.6390   -5.3220  -32.5010 C   0  0  0  0  0  0  0  0  0  0  0  0
  -28.3350   -4.7270  -31.4930 N   0  0  0  0  0  0  0  0  0  0  0  0
  -28.5250   -5.6010  -30.5210 N   0  0  0  0  0  0  0  0  0  0  0  0
  -28.9830   -5.4960  -29.1100 C   0  0  0  0  0  0  0  0  0  0  0  0
  -28.3140   -9.1170  -30.1770 C   0  0  1  0  0  0  0  0  0  0  0  0
  -29.1810   -9.7340  -29.1170 C   0  0  0  0  0  0  0  0  0  0  0  0
  -29.2150  -11.1080  -29.2460 O   0  0  0  0  0  0  0  0  0  0  0  0
  -29.7140  -11.5200  -30.4620 C   0  0  0  0  0  0  0  0  0  0  0  0
  -28.8720  -10.9910  -31.5900 C   0  0  0  0  0  0  0  0  0  0  0  0
  -28.8900   -9.4890  -31.5120 C   0  0  0  0  0  0  0  0  0  0  0  0
  -28.4850  -11.5150  -32.5420 O   0  0  0  0  0  0  0  0  0  0  0  0
  -29.1070   -4.0490  -28.6240 C   0  0  0  0  0  0  0  0  0  0  0  0
  1  2  2  0
  1  6  1  0
  1  3  1  0
  2  4  1  0
  8  3  1  1
  4  5  2  0
  5  6  1  0
  6  7  1  0
  8 13  1  0
  8  9  1  0
  9 10  1  0
 10 11  1  0
 11 12  1  0
 12 14  2  0
 12 13  1  0
  7 15  1  0
M  END
>  <name>  (328) 
Car Nac Nd0 Car Nac Nac Cs3 C3r C3r O_a C3r C2r C3r .=O Cs3

>  <indices>  (328) 
[0, 1, 2]

>  <tasks>  (328) 
probe_placing close_aromatic_ring close_aromatic_ring close_aromatic_ring ring_built build_to_Nac build_to_Nd0 close_aliphatic_ring close_aliphatic_ring close_aliphatic_ring close_aliphatic_ring close_aliphatic_ring build_DB_to_Cs2

>  <prot_clashes>  (328) 
5

>  <NBS phar>  (328) 
0.15999999999999998

>  <NBS_non-phar>  (328) 
0.40260178248087564

>  <NBS>  (328) 
0.5626017824808756

>  <source_stage>  (328) 
scored

>  <source_iter>  (328) 
12

>  <source_parent_mol>  (328) 
0

>  <source_scenario>  (328) 
1 2 3 1 0 7 1 1 3 2 0 0

>  <source_rank_in_scored_call>  (328) 
131

>  <source_current_task>  (328) 
no_task

>  <scenario>  (328) 
1 2 3 1 0 7 1 1 3 2 0

>  <protected_ring_attachments>  (328) 
3,1,0,2|1,0,2;4,5,0,2|5,0,2;9,8,7,2|8,7,2;11,12,7,2|12,7,2

>  <current_task>  (328) 
no_task

>  <rotatable_bond_torsions>  (328) 
1,0,2,7;0,2,7,8

$$$$

     RDKit          3D

 15 16  0  0  0  0  0  0  0  0999 V2000
  -27.9970   -7.0230  -31.1670 C   0  0  0  0  0  0  0  0  0  0  0  0
  -27.6890   -6.8440  -32.4830 N   0  0  0  0  0  0  0  0  0  0  0  0
  -27.6370   -8.3050  -30.4680 N   0  0  0  0  0  0  0  0  0  0  0  0
  -28.0870   -5.6130  -32.8470 C   0  0  0  0  0  0  0  0  0  0  0  0
  -28.6410   -5.0390  -31.7430 N   0  0  0  0  0  0  0  0  0  0  0  0
  -28.5870   -5.8920  -30.7370 N   0  0  0  0  0  0  0  0  0  0  0  0
  -28.7980   -5.7750  -29.2690 C   0  0  0  0  0  0  0  0  0  0  0  0
  -28.0420   -9.3690  -30.3680 C   0  0  1  0  0  0  0  0  0  0  0  0
  -28.6590  -10.0140  -29.1600 C   0  0  0  0  0  0  0  0  0  0  0  0
  -28.6050  -11.3900  -29.2540 O   0  0  0  0  0  0  0  0  0  0  0  0
  -29.2760  -11.8770  -30.3540 C   0  0  0  0  0  0  0  0  0  0  0  0
  -28.6890  -11.3250  -31.6240 C   0  0  0  0  0  0  0  0  0  0  0  0
  -28.8120   -9.8270  -31.5730 C   0  0  0  0  0  0  0  0  0  0  0  0
  -28.4350  -11.8490  -32.6190 O   0  0  0  0  0  0  0  0  0  0  0  0
  -27.6900   -5.1340  -28.3880 C   0  0  0  0  0  0  0  0  0  0  0  0
  1  2  2  0
  1  6  1  0
  1  3  1  0
  2  4  1  0
  8  3  1  1
  4  5  2  0
  5  6  1  0
  6  7  1  0
  8 13  1  0
  8  9  1  0
  9 10  1  0
 10 11  1  0
 11 12  1  0
 12 14  2  0
 12 13  1  0
  7 15  1  0
M  END
>  <name>  (329) 
Car Nac Nd0 Car Nac Nac Cs3 C3r C3r O_a C3r C2r C3r .=O Cs3

>  <indices>  (329) 
[0, 1, 2]

>  <tasks>  (329) 
probe_placing close_aromatic_ring close_aromatic_ring close_aromatic_ring ring_built build_to_Nac build_to_Nd0 close_aliphatic_ring close_aliphatic_ring close_aliphatic_ring close_aliphatic_ring close_aliphatic_ring build_DB_to_Cs2

>  <prot_clashes>  (329) 
11

>  <NBS phar>  (329) 
0.12

>  <NBS_non-phar>  (329) 
0.4196214040120443

>  <NBS>  (329) 
0.5396214040120443

>  <source_stage>  (329) 
scored

>  <source_iter>  (329) 
12

>  <source_parent_mol>  (329) 
0

>  <source_scenario>  (329) 
1 2 3 1 0 7 1 1 3 2 0 0

>  <source_rank_in_scored_call>  (329) 
134

>  <source_current_task>  (329) 
no_task

>  <scenario>  (329) 
1 2 3 1 0 7 1 1 3 2 0

>  <protected_ring_attachments>  (329) 
3,1,0,2|1,0,2;4,5,0,2|5,0,2;9,8,7,2|8,7,2;11,12,7,2|12,7,2

>  <current_task>  (329) 
no_task

>  <rotatable_bond_torsions>  (329) 
1,0,2,7;0,2,7,8

$$$$

     RDKit          3D

 15 16  0  0  0  0  0  0  0  0999 V2000
  -28.0120   -6.8140  -30.8160 C   0  0  0  0  0  0  0  0  0  0  0  0
  -27.5010   -6.7070  -32.0750 N   0  0  0  0  0  0  0  0  0  0  0  0
  -27.8980   -8.1050  -30.0550 N   0  0  0  0  0  0  0  0  0  0  0  0
  -27.7050   -5.4520  -32.5110 C   0  0  0  0  0  0  0  0  0  0  0  0
  -28.3450   -4.7890  -31.5070 N   0  0  0  0  0  0  0  0  0  0  0  0
  -28.5290   -5.6140  -30.4910 N   0  0  0  0  0  0  0  0  0  0  0  0
  -28.9330   -5.4310  -29.0710 C   0  0  0  0  0  0  0  0  0  0  0  0
  -28.4280   -9.1170  -30.0000 C   0  0  1  0  0  0  0  0  0  0  0  0
  -29.2780   -9.6560  -28.8850 C   0  0  0  0  0  0  0  0  0  0  0  0
  -29.3630  -11.0330  -28.9520 O   0  0  0  0  0  0  0  0  0  0  0  0
  -29.9190  -11.4780  -30.1310 C   0  0  0  0  0  0  0  0  0  0  0  0
  -29.1000  -11.0280  -31.3090 C   0  0  0  0  0  0  0  0  0  0  0  0
  -29.0630   -9.5250  -31.2970 C   0  0  0  0  0  0  0  0  0  0  0  0
  -28.7650  -11.6060  -32.2500 O   0  0  0  0  0  0  0  0  0  0  0  0
  -28.5120   -4.0150  -28.3870 C   0  0  0  0  0  0  0  0  0  0  0  0
  1  2  2  0
  1  6  1  0
  1  3  1  0
  2  4  1  0
  8  3  1  6
  4  5  2  0
  5  6  1  0
  6  7  1  0
  8 13  1  0
  8  9  1  0
  9 10  1  0
 10 11  1  0
 11 12  1  0
 12 14  2  0
 12 13  1  0
  7 15  1  0
M  END
>  <name>  (330) 
Car Nac Nd0 Car Nac Nac Cs3 C3r C3r O_a C3r C2r C3r .=O Cs3

>  <indices>  (330) 
[0, 1, 2]

>  <tasks>  (330) 
probe_placing close_aromatic_ring close_aromatic_ring close_aromatic_ring ring_built build_to_Nac build_to_Nd0 close_aliphatic_ring close_aliphatic_ring close_aliphatic_ring close_aliphatic_ring close_aliphatic_ring build_DB_to_Cs2

>  <prot_clashes>  (330) 
6

>  <NBS phar>  (330) 
0.1

>  <NBS_non-phar>  (330) 
0.4212379455566406

>  <NBS>  (330) 
0.5212379455566406

>  <source_stage>  (330) 
scored

>  <source_iter>  (330) 
12

>  <source_parent_mol>  (330) 
0

>  <source_scenario>  (330) 
1 2 3 1 0 7 1 1 3 2 0 0

>  <source_rank_in_scored_call>  (330) 
141

>  <source_current_task>  (330) 
no_task

>  <scenario>  (330) 
1 2 3 1 0 7 1 1 3 2 0

>  <protected_ring_attachments>  (330) 
3,1,0,2|1,0,2;4,5,0,2|5,0,2;9,8,7,2|8,7,2;11,12,7,2|12,7,2

>  <current_task>  (330) 
no_task

>  <rotatable_bond_torsions>  (330) 
1,0,2,7;0,2,7,8

$$$$

     RDKit          3D

 14 15  0  0  0  0  0  0  0  0999 V2000
  -27.6680   -7.1920  -31.1310 C   0  0  0  0  0  0  0  0  0  0  0  0
  -27.3870   -6.6990  -32.3720 N   0  0  0  0  0  0  0  0  0  0  0  0
  -27.0780   -8.5010  -30.6820 N   0  0  0  0  0  0  0  0  0  0  0  0
  -28.0050   -5.5130  -32.5070 C   0  0  0  0  0  0  0  0  0  0  0  0
  -28.6660   -5.2830  -31.3390 N   0  0  0  0  0  0  0  0  0  0  0  0
  -28.4600   -6.2960  -30.5160 N   0  0  0  0  0  0  0  0  0  0  0  0
  -28.7030   -6.5150  -29.0670 C   0  0  0  0  0  0  0  0  0  0  0  0
  -27.6950   -9.7460  -30.7750 C   0  0  1  0  0  0  0  0  0  0  0  0
  -27.8520  -10.3410  -29.3900 C   0  0  0  0  0  0  0  0  0  0  0  0
  -28.7140  -11.5820  -29.4660 C   0  0  0  0  0  0  0  0  0  0  0  0
  -30.0580  -11.2150  -30.0100 C   0  0  0  0  0  0  0  0  0  0  0  0
  -29.9260  -10.6400  -31.3710 C   0  0  0  0  0  0  0  0  0  0  0  0
  -29.0660   -9.3990  -31.3080 C   0  0  0  0  0  0  0  0  0  0  0  0
  -28.4440  -12.5690  -29.1800 O   0  0  0  0  0  0  0  0  0  0  0  0
  1  2  2  0
  1  3  1  0
  1  6  1  0
  2  4  1  0
  8  3  1  1
  4  5  2  0
  5  6  1  0
  6  7  1  0
  8 13  1  0
  8  9  1  0
  9 10  1  0
 10 11  1  0
 10 14  2  0
 11 12  1  0
 12 13  1  0
M  END
>  <name>  (331) 
Car Nac Nd0 Car Nac Nac Cs3 C3r C3r C2r C3r C3r C3r .=O

>  <indices>  (331) 
[0, 1, 2]

>  <tasks>  (331) 
probe_placing close_aromatic_ring close_aromatic_ring close_aromatic_ring ring_built build_to_Nac build_to_Nd0 close_aliphatic_ring close_aliphatic_ring close_aliphatic_ring close_aliphatic_ring close_aliphatic_ring

>  <prot_clashes>  (331) 
12

>  <NBS phar>  (331) 
0.12

>  <NBS_non-phar>  (331) 
0.4957054683140346

>  <NBS>  (331) 
0.6157054683140346

>  <source_stage>  (331) 
scored

>  <source_iter>  (331) 
11

>  <source_parent_mol>  (331) 
1

>  <source_scenario>  (331) 
1 2 3 1 0 7 1 8 1 1 1

>  <source_rank_in_scored_call>  (331) 
0

>  <source_current_task>  (331) 
build_DB_to_Cs2

>  <scenario>  (331) 
1 2 3 1 0 7 1 8 1 1

>  <protected_ring_attachments>  (331) 
3,1,0,2|1,0,2;4,5,0,2|5,0,2;9,8,7,2|8,7,2;11,12,7,2|12,7,2

>  <current_task>  (331) 
no_task

>  <rotatable_bond_torsions>  (331) 
1,0,2,7;0,2,7,8

$$$$

     RDKit          3D

 14 15  0  0  0  0  0  0  0  0999 V2000
  -27.7050   -7.1840  -31.1700 C   0  0  0  0  0  0  0  0  0  0  0  0
  -27.4660   -6.6690  -32.4120 N   0  0  0  0  0  0  0  0  0  0  0  0
  -27.0870   -8.4910  -30.7580 N   0  0  0  0  0  0  0  0  0  0  0  0
  -28.1010   -5.4880  -32.5110 C   0  0  0  0  0  0  0  0  0  0  0  0
  -28.7300   -5.2830  -31.3200 N   0  0  0  0  0  0  0  0  0  0  0  0
  -28.4880   -6.3060  -30.5190 N   0  0  0  0  0  0  0  0  0  0  0  0
  -28.6850   -6.5480  -29.0660 C   0  0  0  0  0  0  0  0  0  0  0  0
  -27.6920   -9.7420  -30.8510 C   0  0  1  0  0  0  0  0  0  0  0  0
  -27.8010  -10.3590  -29.4700 C   0  0  0  0  0  0  0  0  0  0  0  0
  -28.6510  -11.6080  -29.5390 C   0  0  0  0  0  0  0  0  0  0  0  0
  -30.0150  -11.2490  -30.0380 C   0  0  0  0  0  0  0  0  0  0  0  0
  -29.9300  -10.6540  -31.3930 C   0  0  0  0  0  0  0  0  0  0  0  0
  -29.0820   -9.4030  -31.3380 C   0  0  0  0  0  0  0  0  0  0  0  0
  -28.4390  -12.6270  -29.0800 O   0  0  0  0  0  0  0  0  0  0  0  0
  1  2  2  0
  1  3  1  0
  1  6  1  0
  2  4  1  0
  8  3  1  1
  4  5  2  0
  5  6  1  0
  6  7  1  0
  8 13  1  0
  8  9  1  0
  9 10  1  0
 10 11  1  0
 10 14  2  0
 11 12  1  0
 12 13  1  0
M  END
>  <name>  (332) 
Car Nac Nd0 Car Nac Nac Cs3 C3r C3r C2r C3r C3r C3r .=O

>  <indices>  (332) 
[0, 1, 2]

>  <tasks>  (332) 
probe_placing close_aromatic_ring close_aromatic_ring close_aromatic_ring ring_built build_to_Nac build_to_Nd0 close_aliphatic_ring close_aliphatic_ring close_aliphatic_ring close_aliphatic_ring close_aliphatic_ring

>  <prot_clashes>  (332) 
12

>  <NBS phar>  (332) 
0.1

>  <NBS_non-phar>  (332) 
0.4951022352491106

>  <NBS>  (332) 
0.5951022352491107

>  <source_stage>  (332) 
scored

>  <source_iter>  (332) 
11

>  <source_parent_mol>  (332) 
1

>  <source_scenario>  (332) 
1 2 3 1 0 7 1 8 1 1 1

>  <source_rank_in_scored_call>  (332) 
2

>  <source_current_task>  (332) 
build_DB_to_Cs2

>  <scenario>  (332) 
1 2 3 1 0 7 1 8 1 1

>  <protected_ring_attachments>  (332) 
3,1,0,2|1,0,2;4,5,0,2|5,0,2;9,8,7,2|8,7,2;11,12,7,2|12,7,2

>  <current_task>  (332) 
no_task

>  <rotatable_bond_torsions>  (332) 
1,0,2,7;0,2,7,8

$$$$

     RDKit          3D

 15 16  0  0  0  0  0  0  0  0999 V2000
  -27.6260   -6.8750  -30.8150 C   0  0  0  0  0  0  0  0  0  0  0  0
  -27.6550   -6.8920  -32.1790 N   0  0  0  0  0  0  0  0  0  0  0  0
  -26.9430   -7.9800  -30.0560 N   0  0  0  0  0  0  0  0  0  0  0  0
  -28.2880   -5.7840  -32.6030 C   0  0  0  0  0  0  0  0  0  0  0  0
  -28.6460   -5.0890  -31.4890 N   0  0  0  0  0  0  0  0  0  0  0  0
  -28.2450   -5.7500  -30.4170 N   0  0  0  0  0  0  0  0  0  0  0  0
  -28.1280   -5.4070  -28.9760 C   0  0  0  0  0  0  0  0  0  0  0  0
  -27.5630   -9.1130  -29.5360 C   0  0  1  0  0  0  0  0  0  0  0  0
  -27.3780   -9.1500  -28.0320 C   0  0  0  0  0  0  0  0  0  0  0  0
  -28.2320  -10.2520  -27.4430 C   0  0  0  0  0  0  0  0  0  0  0  0
  -29.6680   -9.9870  -27.7660 C   0  0  0  0  0  0  0  0  0  0  0  0
  -29.8710   -9.9580  -29.2350 C   0  0  0  0  0  0  0  0  0  0  0  0
  -29.0230   -8.8610  -29.8360 C   0  0  0  0  0  0  0  0  0  0  0  0
  -27.8990  -11.0880  -26.8790 O   0  0  0  0  0  0  0  0  0  0  0  0
  -29.5830   -5.3700  -28.4190 C   0  0  0  0  0  0  0  0  0  0  0  0
  1  2  2  0
  1  6  1  0
  1  3  1  0
  2  4  1  0
  8  3  1  1
  4  5  2  0
  5  6  1  0
  6  7  1  0
  8 13  1  0
  8  9  1  0
  9 10  1  0
 10 11  1  0
 10 14  2  0
 11 12  1  0
 12 13  1  0
  7 15  1  0
M  END
>  <name>  (333) 
Car Nac Nd0 Car Nac Nac Cs3 C3r C3r C2r C3r C3r C3r .=O Cs3

>  <indices>  (333) 
[0, 1, 2]

>  <tasks>  (333) 
probe_placing close_aromatic_ring close_aromatic_ring close_aromatic_ring ring_built build_to_Nac build_to_Nd0 close_aliphatic_ring close_aliphatic_ring close_aliphatic_ring close_aliphatic_ring close_aliphatic_ring build_DB_to_Cs2

>  <prot_clashes>  (333) 
9

>  <NBS phar>  (333) 
0.13999999999999999

>  <NBS_non-phar>  (333) 
0.4958074887593587

>  <NBS>  (333) 
0.6358074887593587

>  <source_stage>  (333) 
scored

>  <source_iter>  (333) 
12

>  <source_parent_mol>  (333) 
0

>  <source_scenario>  (333) 
1 2 3 1 0 7 1 8 1 1 1 0

>  <source_rank_in_scored_call>  (333) 
20

>  <source_current_task>  (333) 
no_task

>  <scenario>  (333) 
1 2 3 1 0 7 1 8 1 1 1

>  <protected_ring_attachments>  (333) 
3,1,0,2|1,0,2;4,5,0,2|5,0,2;9,8,7,2|8,7,2;11,12,7,2|12,7,2

>  <current_task>  (333) 
no_task

>  <rotatable_bond_torsions>  (333) 
1,0,2,7;0,2,7,8

$$$$

     RDKit          3D

 15 16  0  0  0  0  0  0  0  0999 V2000
  -27.6400   -6.7550  -31.2230 C   0  0  0  0  0  0  0  0  0  0  0  0
  -27.7970   -6.7720  -32.5780 N   0  0  0  0  0  0  0  0  0  0  0  0
  -26.8610   -7.8430  -30.5340 N   0  0  0  0  0  0  0  0  0  0  0  0
  -28.4960   -5.6810  -32.9370 C   0  0  0  0  0  0  0  0  0  0  0  0
  -28.7650   -4.9960  -31.7920 N   0  0  0  0  0  0  0  0  0  0  0  0
  -28.2490   -5.6470  -30.7640 N   0  0  0  0  0  0  0  0  0  0  0  0
  -28.0060   -5.3020  -29.3400 C   0  0  0  0  0  0  0  0  0  0  0  0
  -27.4000   -8.9920  -29.9620 C   0  0  1  0  0  0  0  0  0  0  0  0
  -27.0740   -9.0250  -28.4830 C   0  0  0  0  0  0  0  0  0  0  0  0
  -27.8400  -10.1490  -27.8200 C   0  0  0  0  0  0  0  0  0  0  0  0
  -29.3070   -9.9220  -28.0060 C   0  0  0  0  0  0  0  0  0  0  0  0
  -29.6470   -9.8970  -29.4490 C   0  0  0  0  0  0  0  0  0  0  0  0
  -28.8880   -8.7780  -30.1230 C   0  0  0  0  0  0  0  0  0  0  0  0
  -27.4350  -10.9770  -27.2920 O   0  0  0  0  0  0  0  0  0  0  0  0
  -29.2490   -5.6930  -28.5250 C   0  0  0  0  0  0  0  0  0  0  0  0
  1  2  2  0
  1  6  1  0
  1  3  1  0
  2  4  1  0
  8  3  1  6
  4  5  2  0
  5  6  1  0
  6  7  1  0
  8 13  1  0
  8  9  1  0
  9 10  1  0
 10 11  1  0
 10 14  2  0
 11 12  1  0
 12 13  1  0
  7 15  1  0
M  END
>  <name>  (334) 
Car Nac Nd0 Car Nac Nac Cs3 C3r C3r C2r C3r C3r C3r .=O Cs3

>  <indices>  (334) 
[0, 1, 2]

>  <tasks>  (334) 
probe_placing close_aromatic_ring close_aromatic_ring close_aromatic_ring ring_built build_to_Nac build_to_Nd0 close_aliphatic_ring close_aliphatic_ring close_aliphatic_ring close_aliphatic_ring close_aliphatic_ring build_DB_to_Cs2

>  <prot_clashes>  (334) 
12

>  <NBS phar>  (334) 
0.1

>  <NBS_non-phar>  (334) 
0.5303440093994141

>  <NBS>  (334) 
0.630344009399414

>  <source_stage>  (334) 
scored

>  <source_iter>  (334) 
12

>  <source_parent_mol>  (334) 
0

>  <source_scenario>  (334) 
1 2 3 1 0 7 1 8 1 1 1 0

>  <source_rank_in_scored_call>  (334) 
24

>  <source_current_task>  (334) 
no_task

>  <scenario>  (334) 
1 2 3 1 0 7 1 8 1 1 1

>  <protected_ring_attachments>  (334) 
3,1,0,2|1,0,2;4,5,0,2|5,0,2;9,8,7,2|8,7,2;11,12,7,2|12,7,2

>  <current_task>  (334) 
no_task

>  <rotatable_bond_torsions>  (334) 
1,0,2,7;0,2,7,8

$$$$

     RDKit          3D

 15 16  0  0  0  0  0  0  0  0999 V2000
  -27.6060   -6.7050  -30.5260 C   0  0  0  0  0  0  0  0  0  0  0  0
  -27.3530   -6.7420  -31.8660 N   0  0  0  0  0  0  0  0  0  0  0  0
  -26.9380   -7.6840  -29.5990 N   0  0  0  0  0  0  0  0  0  0  0  0
  -28.0420   -5.7500  -32.4560 C   0  0  0  0  0  0  0  0  0  0  0  0
  -28.7190   -5.1040  -31.4660 N   0  0  0  0  0  0  0  0  0  0  0  0
  -28.4530   -5.6830  -30.3080 N   0  0  0  0  0  0  0  0  0  0  0  0
  -28.6850   -5.3090  -28.8900 C   0  0  0  0  0  0  0  0  0  0  0  0
  -27.4770   -8.8920  -29.1660 C   0  0  1  0  0  0  0  0  0  0  0  0
  -27.6010   -8.8830  -27.6560 C   0  0  0  0  0  0  0  0  0  0  0  0
  -28.3850  -10.0950  -27.2030 C   0  0  0  0  0  0  0  0  0  0  0  0
  -29.7480  -10.0570  -27.8190 C   0  0  0  0  0  0  0  0  0  0  0  0
  -29.6480  -10.0770  -29.2980 C   0  0  0  0  0  0  0  0  0  0  0  0
  -28.8660   -8.8700  -29.7630 C   0  0  0  0  0  0  0  0  0  0  0  0
  -28.0560  -10.8640  -26.5490 O   0  0  0  0  0  0  0  0  0  0  0  0
  -28.3300   -3.8160  -28.5320 C   0  0  0  0  0  0  0  0  0  0  0  0
  1  2  2  0
  1  6  1  0
  1  3  1  0
  2  4  1  0
  8  3  1  6
  4  5  2  0
  5  6  1  0
  6  7  1  0
  8 13  1  0
  8  9  1  0
  9 10  1  0
 10 11  1  0
 10 14  2  0
 11 12  1  0
 12 13  1  0
  7 15  1  0
M  END
>  <name>  (335) 
Car Nac Nd0 Car Nac Nac Cs3 C3r C3r C2r C3r C3r C3r .=O Cs3

>  <indices>  (335) 
[0, 1, 2]

>  <tasks>  (335) 
probe_placing close_aromatic_ring close_aromatic_ring close_aromatic_ring ring_built build_to_Nac build_to_Nd0 close_aliphatic_ring close_aliphatic_ring close_aliphatic_ring close_aliphatic_ring close_aliphatic_ring build_DB_to_Cs2

>  <prot_clashes>  (335) 
6

>  <NBS phar>  (335) 
0.12

>  <NBS_non-phar>  (335) 
0.4792399088541667

>  <NBS>  (335) 
0.5992399088541667

>  <source_stage>  (335) 
scored

>  <source_iter>  (335) 
12

>  <source_parent_mol>  (335) 
0

>  <source_scenario>  (335) 
1 2 3 1 0 7 1 8 1 1 1 0

>  <source_rank_in_scored_call>  (335) 
46

>  <source_current_task>  (335) 
no_task

>  <scenario>  (335) 
1 2 3 1 0 7 1 8 1 1 1

>  <protected_ring_attachments>  (335) 
3,1,0,2|1,0,2;4,5,0,2|5,0,2;9,8,7,2|8,7,2;11,12,7,2|12,7,2

>  <current_task>  (335) 
no_task

>  <rotatable_bond_torsions>  (335) 
1,0,2,7;0,2,7,8

$$$$

     RDKit          3D

 15 16  0  0  0  0  0  0  0  0999 V2000
  -27.6910   -6.9700  -30.9010 C   0  0  0  0  0  0  0  0  0  0  0  0
  -27.2800   -6.5790  -32.1420 N   0  0  0  0  0  0  0  0  0  0  0  0
  -27.0570   -8.1570  -30.2290 N   0  0  0  0  0  0  0  0  0  0  0  0
  -27.9760   -5.4850  -32.4950 C   0  0  0  0  0  0  0  0  0  0  0  0
  -28.8170   -5.2080  -31.4610 N   0  0  0  0  0  0  0  0  0  0  0  0
  -28.6410   -6.1040  -30.5060 N   0  0  0  0  0  0  0  0  0  0  0  0
  -29.0700   -6.1980  -29.0870 C   0  0  0  0  0  0  0  0  0  0  0  0
  -27.5390   -9.4630  -30.2580 C   0  0  1  0  0  0  0  0  0  0  0  0
  -27.8400   -9.9260  -28.8470 C   0  0  0  0  0  0  0  0  0  0  0  0
  -28.5670  -11.2520  -28.8930 C   0  0  0  0  0  0  0  0  0  0  0  0
  -29.8460  -11.0870  -29.6510 C   0  0  0  0  0  0  0  0  0  0  0  0
  -29.5710  -10.6430  -31.0390 C   0  0  0  0  0  0  0  0  0  0  0  0
  -28.8440   -9.3180  -31.0060 C   0  0  0  0  0  0  0  0  0  0  0  0
  -28.2530  -12.1710  -28.4610 O   0  0  0  0  0  0  0  0  0  0  0  0
  -29.5450   -4.7440  -28.6440 C   0  0  0  0  0  0  0  0  0  0  0  0
  1  2  2  0
  1  6  1  0
  1  3  1  0
  2  4  1  0
  8  3  1  1
  4  5  2  0
  5  6  1  0
  6  7  1  0
  8 13  1  0
  8  9  1  0
  9 10  1  0
 10 11  1  0
 10 14  2  0
 11 12  1  0
 12 13  1  0
  7 15  1  0
M  END
>  <name>  (336) 
Car Nac Nd0 Car Nac Nac Cs3 C3r C3r C2r C3r C3r C3r .=O Cs3

>  <indices>  (336) 
[0, 1, 2]

>  <tasks>  (336) 
probe_placing close_aromatic_ring close_aromatic_ring close_aromatic_ring ring_built build_to_Nac build_to_Nd0 close_aliphatic_ring close_aliphatic_ring close_aliphatic_ring close_aliphatic_ring close_aliphatic_ring build_DB_to_Cs2

>  <prot_clashes>  (336) 
9

>  <NBS phar>  (336) 
0.13999999999999999

>  <NBS_non-phar>  (336) 
0.4421460787455241

>  <NBS>  (336) 
0.582146078745524

>  <source_stage>  (336) 
scored

>  <source_iter>  (336) 
12

>  <source_parent_mol>  (336) 
0

>  <source_scenario>  (336) 
1 2 3 1 0 7 1 8 1 1 1 0

>  <source_rank_in_scored_call>  (336) 
60

>  <source_current_task>  (336) 
no_task

>  <scenario>  (336) 
1 2 3 1 0 7 1 8 1 1 1

>  <protected_ring_attachments>  (336) 
3,1,0,2|1,0,2;4,5,0,2|5,0,2;9,8,7,2|8,7,2;11,12,7,2|12,7,2

>  <current_task>  (336) 
no_task

>  <rotatable_bond_torsions>  (336) 
1,0,2,7;0,2,7,8

$$$$

     RDKit          3D

 15 16  0  0  0  0  0  0  0  0999 V2000
  -27.6300   -6.9290  -30.9120 C   0  0  0  0  0  0  0  0  0  0  0  0
  -27.6840   -6.9600  -32.2750 N   0  0  0  0  0  0  0  0  0  0  0  0
  -26.9530   -8.0380  -30.1540 N   0  0  0  0  0  0  0  0  0  0  0  0
  -28.3060   -5.8460  -32.7000 C   0  0  0  0  0  0  0  0  0  0  0  0
  -28.6310   -5.1330  -31.5860 N   0  0  0  0  0  0  0  0  0  0  0  0
  -28.2230   -5.7890  -30.5150 N   0  0  0  0  0  0  0  0  0  0  0  0
  -28.0740   -5.4340  -29.0800 C   0  0  0  0  0  0  0  0  0  0  0  0
  -27.5830   -9.1550  -29.6110 C   0  0  1  0  0  0  0  0  0  0  0  0
  -27.3720   -9.1800  -28.1100 C   0  0  0  0  0  0  0  0  0  0  0  0
  -28.2340  -10.2600  -27.4950 C   0  0  0  0  0  0  0  0  0  0  0  0
  -29.6710   -9.9740  -27.7950 C   0  0  0  0  0  0  0  0  0  0  0  0
  -29.9000   -9.9560  -29.2600 C   0  0  0  0  0  0  0  0  0  0  0  0
  -29.0440   -8.8800  -29.8870 C   0  0  0  0  0  0  0  0  0  0  0  0
  -27.9060  -11.0970  -26.9270 O   0  0  0  0  0  0  0  0  0  0  0  0
  -29.3830   -5.7060  -28.3870 C   0  0  0  0  0  0  0  0  0  0  0  0
  1  2  2  0
  1  6  1  0
  1  3  1  0
  2  4  1  0
  8  3  1  6
  4  5  2  0
  5  6  1  0
  6  7  1  0
  8 13  1  0
  8  9  1  0
  9 10  1  0
 10 11  1  0
 10 14  2  0
 11 12  1  0
 12 13  1  0
  7 15  1  0
M  END
>  <name>  (337) 
Car Nac Nd0 Car Nac Nac Cs3 C3r C3r C2r C3r C3r C3r .=O Cs3

>  <indices>  (337) 
[0, 1, 2]

>  <tasks>  (337) 
probe_placing close_aromatic_ring close_aromatic_ring close_aromatic_ring ring_built build_to_Nac build_to_Nd0 close_aliphatic_ring close_aliphatic_ring close_aliphatic_ring close_aliphatic_ring close_aliphatic_ring build_DB_to_Cs2

>  <prot_clashes>  (337) 
7

>  <NBS phar>  (337) 
0.12

>  <NBS_non-phar>  (337) 
0.44639724095662436

>  <NBS>  (337) 
0.5663972409566244

>  <source_stage>  (337) 
scored

>  <source_iter>  (337) 
12

>  <source_parent_mol>  (337) 
0

>  <source_scenario>  (337) 
1 2 3 1 0 7 1 8 1 1 1 0

>  <source_rank_in_scored_call>  (337) 
75

>  <source_current_task>  (337) 
no_task

>  <scenario>  (337) 
1 2 3 1 0 7 1 8 1 1 1

>  <protected_ring_attachments>  (337) 
3,1,0,2|1,0,2;4,5,0,2|5,0,2;9,8,7,2|8,7,2;11,12,7,2|12,7,2

>  <current_task>  (337) 
no_task

>  <rotatable_bond_torsions>  (337) 
1,0,2,7;0,2,7,8

$$$$

     RDKit          3D

 15 16  0  0  0  0  0  0  0  0999 V2000
  -27.5140   -6.7210  -30.7450 C   0  0  0  0  0  0  0  0  0  0  0  0
  -27.3690   -6.6060  -32.0970 N   0  0  0  0  0  0  0  0  0  0  0  0
  -26.8630   -7.8570  -30.0060 N   0  0  0  0  0  0  0  0  0  0  0  0
  -28.0130   -5.4970  -32.5000 C   0  0  0  0  0  0  0  0  0  0  0  0
  -28.5530   -4.9330  -31.3850 N   0  0  0  0  0  0  0  0  0  0  0  0
  -28.2500   -5.6740  -30.3330 N   0  0  0  0  0  0  0  0  0  0  0  0
  -28.3390   -5.4680  -28.8650 C   0  0  0  0  0  0  0  0  0  0  0  0
  -27.4690   -9.0670  -29.6770 C   0  0  1  0  0  0  0  0  0  0  0  0
  -27.4750   -9.2410  -28.1710 C   0  0  0  0  0  0  0  0  0  0  0  0
  -28.3230  -10.4380  -27.8020 C   0  0  0  0  0  0  0  0  0  0  0  0
  -29.7210  -10.2190  -28.2870 C   0  0  0  0  0  0  0  0  0  0  0  0
  -29.7380  -10.0570  -29.7610 C   0  0  0  0  0  0  0  0  0  0  0  0
  -28.8930   -8.8630  -30.1430 C   0  0  0  0  0  0  0  0  0  0  0  0
  -28.0120  -11.3070  -27.2760 O   0  0  0  0  0  0  0  0  0  0  0  0
  -29.5400   -4.6290  -28.4790 C   0  0  0  0  0  0  0  0  0  0  0  0
  1  2  2  0
  1  6  1  0
  1  3  1  0
  2  4  1  0
  8  3  1  1
  4  5  2  0
  5  6  1  0
  6  7  1  0
  8 13  1  0
  8  9  1  0
  9 10  1  0
 10 11  1  0
 10 14  2  0
 11 12  1  0
 12 13  1  0
  7 15  1  0
M  END
>  <name>  (338) 
Car Nac Nd0 Car Nac Nac Cs3 C3r C3r C2r C3r C3r C3r .=O Cs3

>  <indices>  (338) 
[0, 1, 2]

>  <tasks>  (338) 
probe_placing close_aromatic_ring close_aromatic_ring close_aromatic_ring ring_built build_to_Nac build_to_Nd0 close_aliphatic_ring close_aliphatic_ring close_aliphatic_ring close_aliphatic_ring close_aliphatic_ring build_DB_to_Cs2

>  <prot_clashes>  (338) 
10

>  <NBS phar>  (338) 
0.12

>  <NBS_non-phar>  (338) 
0.40560391743977864

>  <NBS>  (338) 
0.5256039174397786

>  <source_stage>  (338) 
scored

>  <source_iter>  (338) 
12

>  <source_parent_mol>  (338) 
0

>  <source_scenario>  (338) 
1 2 3 1 0 7 1 8 1 1 1 0

>  <source_rank_in_scored_call>  (338) 
129

>  <source_current_task>  (338) 
no_task

>  <scenario>  (338) 
1 2 3 1 0 7 1 8 1 1 1

>  <protected_ring_attachments>  (338) 
3,1,0,2|1,0,2;4,5,0,2|5,0,2;9,8,7,2|8,7,2;11,12,7,2|12,7,2

>  <current_task>  (338) 
no_task

>  <rotatable_bond_torsions>  (338) 
1,0,2,7;0,2,7,8

$$$$

     RDKit          3D

 15 16  0  0  0  0  0  0  0  0999 V2000
  -27.6430   -6.9130  -30.8530 C   0  0  0  0  0  0  0  0  0  0  0  0
  -27.2810   -6.5940  -32.1290 N   0  0  0  0  0  0  0  0  0  0  0  0
  -26.9950   -8.0710  -30.1460 N   0  0  0  0  0  0  0  0  0  0  0  0
  -27.9780   -5.5100  -32.5100 C   0  0  0  0  0  0  0  0  0  0  0  0
  -28.7710   -5.1670  -31.4570 N   0  0  0  0  0  0  0  0  0  0  0  0
  -28.5650   -6.0140  -30.4640 N   0  0  0  0  0  0  0  0  0  0  0  0
  -28.9340   -6.0270  -29.0250 C   0  0  0  0  0  0  0  0  0  0  0  0
  -27.4930   -9.3700  -30.0860 C   0  0  1  0  0  0  0  0  0  0  0  0
  -27.7390   -9.7540  -28.6400 C   0  0  0  0  0  0  0  0  0  0  0  0
  -28.4830  -11.0710  -28.5850 C   0  0  0  0  0  0  0  0  0  0  0  0
  -29.7910  -10.9270  -29.2960 C   0  0  0  0  0  0  0  0  0  0  0  0
  -29.5710  -10.5610  -30.7160 C   0  0  0  0  0  0  0  0  0  0  0  0
  -28.8280   -9.2470  -30.7840 C   0  0  0  0  0  0  0  0  0  0  0  0
  -28.1620  -11.9700  -28.1190 O   0  0  0  0  0  0  0  0  0  0  0  0
  -29.5310   -4.7020  -28.5410 C   0  0  0  0  0  0  0  0  0  0  0  0
  1  2  2  0
  1  6  1  0
  1  3  1  0
  2  4  1  0
  8  3  1  1
  4  5  2  0
  5  6  1  0
  6  7  1  0
  8 13  1  0
  8  9  1  0
  9 10  1  0
 10 11  1  0
 10 14  2  0
 11 12  1  0
 12 13  1  0
  7 15  1  0
M  END
>  <name>  (339) 
Car Nac Nd0 Car Nac Nac Cs3 C3r C3r C2r C3r C3r C3r .=O Cs3

>  <indices>  (339) 
[0, 1, 2]

>  <tasks>  (339) 
probe_placing close_aromatic_ring close_aromatic_ring close_aromatic_ring ring_built build_to_Nac build_to_Nd0 close_aliphatic_ring close_aliphatic_ring close_aliphatic_ring close_aliphatic_ring close_aliphatic_ring build_DB_to_Cs2

>  <prot_clashes>  (339) 
10

>  <NBS phar>  (339) 
0.12

>  <NBS_non-phar>  (339) 
0.3976312001546224

>  <NBS>  (339) 
0.5176312001546224

>  <source_stage>  (339) 
scored

>  <source_iter>  (339) 
12

>  <source_parent_mol>  (339) 
0

>  <source_scenario>  (339) 
1 2 3 1 0 7 1 8 1 1 1 0

>  <source_rank_in_scored_call>  (339) 
138

>  <source_current_task>  (339) 
no_task

>  <scenario>  (339) 
1 2 3 1 0 7 1 8 1 1 1

>  <protected_ring_attachments>  (339) 
3,1,0,2|1,0,2;4,5,0,2|5,0,2;9,8,7,2|8,7,2;11,12,7,2|12,7,2

>  <current_task>  (339) 
no_task

>  <rotatable_bond_torsions>  (339) 
1,0,2,7;0,2,7,8

$$$$

     RDKit          3D

 15 16  0  0  0  0  0  0  0  0999 V2000
  -27.6450   -7.7000  -30.2210 C   0  0  0  0  0  0  0  0  0  0  0  0
  -27.2580   -7.0830  -31.3750 N   0  0  0  0  0  0  0  0  0  0  0  0
  -27.1340   -9.0750  -29.8860 N   0  0  0  0  0  0  0  0  0  0  0  0
  -27.8240   -5.8640  -31.4150 C   0  0  0  0  0  0  0  0  0  0  0  0
  -28.5590   -5.7390  -30.2750 N   0  0  0  0  0  0  0  0  0  0  0  0
  -28.4480   -6.8460  -29.5620 N   0  0  0  0  0  0  0  0  0  0  0  0
  -28.8020   -7.2150  -28.1680 C   0  0  0  0  0  0  0  0  0  0  0  0
  -27.7850  -10.2740  -30.1630 C   0  0  1  0  0  0  0  0  0  0  0  0
  -28.0620  -11.0130  -28.8690 C   0  0  0  0  0  0  0  0  0  0  0  0
  -28.9590  -12.2000  -29.1460 C   0  0  0  0  0  0  0  0  0  0  0  0
  -30.2460  -11.7180  -29.7340 C   0  0  0  0  0  0  0  0  0  0  0  0
  -29.9970  -11.0000  -31.0080 C   0  0  0  0  0  0  0  0  0  0  0  0
  -29.1010   -9.8120  -30.7440 C   0  0  0  0  0  0  0  0  0  0  0  0
  -28.7440  -13.2240  -28.9570 O   0  0  0  0  0  0  0  0  0  0  0  0
  -27.6730   -4.8350  -32.5080 C   0  0  0  0  0  0  0  0  0  0  0  0
  1  2  2  0
  1  3  1  0
  1  6  1  0
  2  4  1  0
  8  3  1  1
  4 15  1  0
  4  5  2  0
  5  6  1  0
  6  7  1  0
  8 13  1  0
  8  9  1  0
  9 10  1  0
 10 11  1  0
 10 14  2  0
 11 12  1  0
 12 13  1  0
M  END
>  <name>  (340) 
Car Nac Nd0 Car Nac Nac Cs3 C3r C3r C2r C3r C3r C3r .=O Cs3

>  <indices>  (340) 
[0, 1, 2]

>  <tasks>  (340) 
probe_placing close_aromatic_ring close_aromatic_ring close_aromatic_ring ring_built build_to_Nac build_to_Nd0 close_aliphatic_ring close_aliphatic_ring close_aliphatic_ring close_aliphatic_ring close_aliphatic_ring build_DB_to_Cs2

>  <prot_clashes>  (340) 
9

>  <NBS phar>  (340) 
0.0

>  <NBS_non-phar>  (340) 
0.3374277750651042

>  <NBS>  (340) 
0.3374277750651042

>  <source_stage>  (340) 
scored

>  <source_iter>  (340) 
12

>  <source_parent_mol>  (340) 
0

>  <source_scenario>  (340) 
1 2 3 1 0 7 1 8 1 1 1 0

>  <source_rank_in_scored_call>  (340) 
179

>  <source_current_task>  (340) 
no_task

>  <scenario>  (340) 
1 2 3 1 0 7 1 8 1 1 1

>  <protected_ring_attachments>  (340) 
3,1,0,2|1,0,2;4,5,0,2|5,0,2;9,8,7,2|8,7,2;11,12,7,2|12,7,2

>  <current_task>  (340) 
no_task

>  <rotatable_bond_torsions>  (340) 
1,0,2,7;0,2,7,8

$$$$

     RDKit          3D

 14 15  0  0  0  0  0  0  0  0999 V2000
  -27.6770   -7.1950  -30.9390 C   0  0  0  0  0  0  0  0  0  0  0  0
  -27.7290   -6.9760  -32.2840 N   0  0  0  0  0  0  0  0  0  0  0  0
  -27.0340   -8.4390  -30.3930 N   0  0  0  0  0  0  0  0  0  0  0  0
  -28.3180   -5.7880  -32.4990 C   0  0  0  0  0  0  0  0  0  0  0  0
  -28.6300   -5.2800  -31.2750 N   0  0  0  0  0  0  0  0  0  0  0  0
  -28.2440   -6.1290  -30.3410 N   0  0  0  0  0  0  0  0  0  0  0  0
  -28.0910   -6.0430  -28.8640 C   0  0  0  0  0  0  0  0  0  0  0  0
  -27.8440   -9.5240  -30.0900 C   0  0  1  0  0  0  0  0  0  0  0  0
  -29.1020   -9.0250  -29.4400 C   0  0  0  0  0  0  0  0  0  0  0  0
  -29.9490  -10.2050  -29.0400 C   0  0  0  0  0  0  0  0  0  0  0  0
  -30.3000  -11.0150  -30.2610 C   0  0  0  0  0  0  0  0  0  0  0  0
  -29.0340  -11.4940  -30.8990 C   0  0  0  0  0  0  0  0  0  0  0  0
  -28.1880  -10.3260  -31.3000 C   0  0  0  0  0  0  0  0  0  0  0  0
  -30.4860  -10.3870  -28.0500 O   0  0  0  0  0  0  0  0  0  0  0  0
  1  2  2  0
  1  3  1  0
  1  6  1  0
  2  4  1  0
  8  3  1  6
  4  5  2  0
  5  6  1  0
  6  7  1  0
  8 13  1  0
  8  9  1  0
  9 10  1  0
 10 11  1  0
 10 14  2  0
 11 12  1  0
 12 13  1  0
M  END
>  <name>  (341) 
Car Nac Nd0 Car Nac Nac Cs3 C3r C3r C2r C3r C3r C3r .=O

>  <indices>  (341) 
[0, 1, 2]

>  <tasks>  (341) 
probe_placing close_aromatic_ring close_aromatic_ring close_aromatic_ring ring_built build_to_Nac build_to_Nd0 close_aliphatic_ring close_aliphatic_ring close_aliphatic_ring close_aliphatic_ring close_aliphatic_ring

>  <prot_clashes>  (341) 
7

>  <NBS phar>  (341) 
0.12

>  <NBS_non-phar>  (341) 
0.4072796276637486

>  <NBS>  (341) 
0.5272796276637486

>  <source_stage>  (341) 
scored

>  <source_iter>  (341) 
11

>  <source_parent_mol>  (341) 
0

>  <source_scenario>  (341) 
1 2 3 1 0 7 3 0 6 3 0

>  <source_rank_in_scored_call>  (341) 
2

>  <source_current_task>  (341) 
build_DB_to_Cs2

>  <scenario>  (341) 
1 2 3 1 0 7 3 0 6 3

>  <protected_ring_attachments>  (341) 
3,1,0,2|1,0,2;4,5,0,2|5,0,2;9,8,7,2|8,7,2;11,12,7,2|12,7,2

>  <current_task>  (341) 
no_task

>  <rotatable_bond_torsions>  (341) 
1,0,2,7;0,2,7,8

>  <reason_to_skip>  (341) 
global_duplicate

>  <global_duplicate_rmsd>  (341) 
0.0

>  <global_duplicate_old_source_iter>  (341) 
10

>  <global_duplicate_old_source_parent_mol>  (341) 
3

>  <global_duplicate_old_index>  (341) 
NA

>  <global_duplicate_rotatable_bond_torsions>  (341) 
1,0,2,7;0,2,7,8

>  <global_duplicate_old_rotatable_bond_torsions>  (341) 
1,0,2,7;0,2,7,8

>  <global_duplicate_last_growth_torsion>  (341) 
(9, 10, 11, 12)

>  <global_duplicate_protected_ring_attachments>  (341) 
3,1,0,2|1,0,2;4,5,0,2|5,0,2;9,8,7,2|8,7,2;11,12,7,2|12,7,2

>  <global_duplicate_old_last_growth_torsion>  (341) 
(9, 10, 11, 12)

>  <global_duplicate_old_protected_ring_attachments>  (341) 
3,1,0,2|1,0,2;4,5,0,2|5,0,2;9,8,7,2|8,7,2;11,12,7,2|12,7,2

$$$$

     RDKit          3D

 14 15  0  0  0  0  0  0  0  0999 V2000
  -27.6390   -7.2210  -30.8990 C   0  0  0  0  0  0  0  0  0  0  0  0
  -27.6730   -7.0390  -32.2500 N   0  0  0  0  0  0  0  0  0  0  0  0
  -27.0090   -8.4530  -30.3120 N   0  0  0  0  0  0  0  0  0  0  0  0
  -28.2530   -5.8530  -32.5050 C   0  0  0  0  0  0  0  0  0  0  0  0
  -28.5770   -5.3110  -31.2990 N   0  0  0  0  0  0  0  0  0  0  0  0
  -28.2070   -6.1360  -30.3370 N   0  0  0  0  0  0  0  0  0  0  0  0
  -28.0720   -6.0100  -28.8610 C   0  0  0  0  0  0  0  0  0  0  0  0
  -27.8290   -9.5250  -29.9890 C   0  0  1  0  0  0  0  0  0  0  0  0
  -29.0920   -9.0020  -29.3680 C   0  0  0  0  0  0  0  0  0  0  0  0
  -29.9510  -10.1650  -28.9460 C   0  0  0  0  0  0  0  0  0  0  0  0
  -30.2920  -11.0070  -30.1490 C   0  0  0  0  0  0  0  0  0  0  0  0
  -29.0200  -11.5100  -30.7590 C   0  0  0  0  0  0  0  0  0  0  0  0
  -28.1630  -10.3580  -31.1810 C   0  0  0  0  0  0  0  0  0  0  0  0
  -30.2940  -10.3930  -27.9650 O   0  0  0  0  0  0  0  0  0  0  0  0
  1  2  2  0
  1  6  1  0
  1  3  1  0
  2  4  1  0
  8  3  1  6
  4  5  2  0
  5  6  1  0
  6  7  1  0
  8 13  1  0
  8  9  1  0
  9 10  1  0
 10 11  1  0
 10 14  2  0
 11 12  1  0
 12 13  1  0
M  END
>  <name>  (342) 
Car Nac Nd0 Car Nac Nac Cs3 C3r C3r C2r C3r C3r C3r .=O

>  <indices>  (342) 
[0, 1, 2]

>  <tasks>  (342) 
probe_placing close_aromatic_ring close_aromatic_ring close_aromatic_ring ring_built build_to_Nac build_to_Nd0 close_aliphatic_ring close_aliphatic_ring close_aliphatic_ring close_aliphatic_ring close_aliphatic_ring

>  <prot_clashes>  (342) 
6

>  <NBS phar>  (342) 
0.12

>  <NBS_non-phar>  (342) 
0.3789999485015869

>  <NBS>  (342) 
0.4989999485015869

>  <source_stage>  (342) 
scored

>  <source_iter>  (342) 
11

>  <source_parent_mol>  (342) 
0

>  <source_scenario>  (342) 
1 2 3 1 0 7 3 0 6 3 0

>  <source_rank_in_scored_call>  (342) 
5

>  <source_current_task>  (342) 
build_DB_to_Cs2

>  <scenario>  (342) 
1 2 3 1 0 7 3 0 6 3

>  <protected_ring_attachments>  (342) 
3,1,0,2|1,0,2;4,5,0,2|5,0,2;9,8,7,2|8,7,2;11,12,7,2|12,7,2

>  <current_task>  (342) 
no_task

>  <rotatable_bond_torsions>  (342) 
1,0,2,7;0,2,7,8

>  <reason_to_skip>  (342) 
global_duplicate

>  <global_duplicate_rmsd>  (342) 
0.0

>  <global_duplicate_old_source_iter>  (342) 
10

>  <global_duplicate_old_source_parent_mol>  (342) 
3

>  <global_duplicate_old_index>  (342) 
NA

>  <global_duplicate_rotatable_bond_torsions>  (342) 
1,0,2,7;0,2,7,8

>  <global_duplicate_old_rotatable_bond_torsions>  (342) 
1,0,2,7;0,2,7,8

>  <global_duplicate_last_growth_torsion>  (342) 
(9, 10, 11, 12)

>  <global_duplicate_protected_ring_attachments>  (342) 
3,1,0,2|1,0,2;4,5,0,2|5,0,2;9,8,7,2|8,7,2;11,12,7,2|12,7,2

>  <global_duplicate_old_last_growth_torsion>  (342) 
(9, 10, 11, 12)

>  <global_duplicate_old_protected_ring_attachments>  (342) 
3,1,0,2|1,0,2;4,5,0,2|5,0,2;9,8,7,2|8,7,2;11,12,7,2|12,7,2

$$$$

     RDKit          3D

 13 14  0  0  0  0  0  0  0  0999 V2000
  -27.8120   -7.4680  -31.1910 C   0  0  0  0  0  0  0  0  0  0  0  0
  -28.0420   -6.9710  -32.4390 N   0  0  0  0  0  0  0  0  0  0  0  0
  -27.3150   -8.8760  -31.0130 N   0  0  0  0  0  0  0  0  0  0  0  0
  -28.4420   -5.6940  -32.3210 C   0  0  0  0  0  0  0  0  0  0  0  0
  -28.4560   -5.4110  -30.9890 N   0  0  0  0  0  0  0  0  0  0  0  0
  -28.0760   -6.4810  -30.3130 N   0  0  0  0  0  0  0  0  0  0  0  0
  -27.6720   -6.7250  -28.9050 C   0  0  0  0  0  0  0  0  0  0  0  0
  -28.6890  -10.0660  -30.9770 C   0  0  2  0  0  0  0  0  0  0  0  0
  -29.2610   -9.3040  -29.7580 C   0  0  0  0  0  0  0  0  0  0  0  0
  -30.3140  -10.1680  -29.1350 C   0  0  0  0  0  0  0  0  0  0  0  0
  -29.7850  -11.3660  -28.7350 O   0  0  0  0  0  0  0  0  0  0  0  0
  -29.2220  -12.1030  -29.7830 C   0  0  0  0  0  0  0  0  0  0  0  0
  -28.0930  -11.3630  -30.4500 C   0  0  0  0  0  0  0  0  0  0  0  0
  1  2  2  0
  1  3  1  0
  1  6  1  0
  2  4  1  0
  8  3  1  1
  4  5  2  0
  5  6  1  0
  6  7  1  0
  8 13  1  0
  8  9  1  0
  9 10  1  0
 10 11  1  0
 11 12  1  0
 12 13  1  0
M  END
>  <name>  (343) 
Car Nac Nd0 Car Nac Nac Cs3 C3r C3r C3r O_a C3r C3r

>  <indices>  (343) 
[0, 1, 2]

>  <tasks>  (343) 
probe_placing close_aromatic_ring close_aromatic_ring close_aromatic_ring ring_built build_to_Nac build_to_Nd0 close_aliphatic_ring close_aliphatic_ring close_aliphatic_ring close_aliphatic_ring

>  <prot_clashes>  (343) 
4

>  <NBS phar>  (343) 
0.24000000000000005

>  <NBS_non-phar>  (343) 
0.5682900868929349

>  <NBS>  (343) 
0.808290086892935

>  <source_stage>  (343) 
scored

>  <source_iter>  (343) 
10

>  <source_parent_mol>  (343) 
3

>  <source_scenario>  (343) 
1 2 3 1 0 7 3 1 1 3

>  <source_rank_in_scored_call>  (343) 
0

>  <source_current_task>  (343) 
close_aliphatic_ring

>  <scenario>  (343) 
1 2 3 1 0 7 3 1 1

>  <protected_ring_attachments>  (343) 
3,1,0,2|1,0,2;4,5,0,2|5,0,2

>  <current_task>  (343) 
no_task

>  <rotatable_bond_torsions>  (343) 
1,0,2,7;0,2,7,8;2,7,8,9;7,8,9,10;8,9,10,11

$$$$

     RDKit          3D

 14 15  0  0  0  0  0  0  0  0999 V2000
  -27.7320   -7.3700  -31.2820 C   0  0  0  0  0  0  0  0  0  0  0  0
  -27.7460   -6.7810  -32.5110 N   0  0  0  0  0  0  0  0  0  0  0  0
  -27.3720   -8.8210  -31.1380 N   0  0  0  0  0  0  0  0  0  0  0  0
  -28.0630   -5.4830  -32.3580 C   0  0  0  0  0  0  0  0  0  0  0  0
  -28.2440   -5.2820  -31.0230 N   0  0  0  0  0  0  0  0  0  0  0  0
  -28.0450   -6.4190  -30.3810 N   0  0  0  0  0  0  0  0  0  0  0  0
  -27.8620   -6.7800  -28.9500 C   0  0  0  0  0  0  0  0  0  0  0  0
  -28.0720   -9.6140  -30.7360 C   0  0  1  0  0  0  0  0  0  0  0  0
  -29.4770   -9.3080  -30.2950 C   0  0  0  0  0  0  0  0  0  0  0  0
  -29.9370  -10.2440  -29.3950 O   0  0  0  0  0  0  0  0  0  0  0  0
  -29.9490  -11.5350  -29.9240 C   0  0  0  0  0  0  0  0  0  0  0  0
  -28.5440  -11.9560  -30.3380 C   0  0  0  0  0  0  0  0  0  0  0  0
  -28.0630  -10.9590  -31.3880 C   0  0  0  0  0  0  0  0  0  0  0  0
  -27.9740  -12.9400  -30.1870 O   0  0  0  0  0  0  0  0  0  0  0  0
  1  2  2  0
  1  3  1  0
  1  6  1  0
  2  4  1  0
  8  3  1  6
  4  5  2  0
  5  6  1  0
  6  7  1  0
  8 13  1  0
  8  9  1  0
  9 10  1  0
 10 11  1  0
 11 12  1  0
 12 13  1  0
 12 14  2  0
M  END
>  <name>  (344) 
Car Nac Nd0 Car Nac Nac Cs3 C3r C3r O_a C3r C2r C3r .=O

>  <indices>  (344) 
[0, 1, 2]

>  <tasks>  (344) 
probe_placing close_aromatic_ring close_aromatic_ring close_aromatic_ring ring_built build_to_Nac build_to_Nd0 close_aliphatic_ring close_aliphatic_ring close_aliphatic_ring close_aliphatic_ring close_aliphatic_ring

>  <prot_clashes>  (344) 
6

>  <NBS phar>  (344) 
0.26000000000000006

>  <NBS_non-phar>  (344) 
0.4437159470149449

>  <NBS>  (344) 
0.703715947014945

>  <source_stage>  (344) 
scored

>  <source_iter>  (344) 
11

>  <source_parent_mol>  (344) 
0

>  <source_scenario>  (344) 
1 2 3 1 0 7 3 3 2 0 0

>  <source_rank_in_scored_call>  (344) 
2

>  <source_current_task>  (344) 
build_DB_to_Cs2

>  <scenario>  (344) 
1 2 3 1 0 7 3 3 2 0

>  <protected_ring_attachments>  (344) 
3,1,0,2|1,0,2;4,5,0,2|5,0,2;9,8,7,2|8,7,2;11,12,7,2|12,7,2

>  <current_task>  (344) 
no_task

>  <rotatable_bond_torsions>  (344) 
1,0,2,7;0,2,7,8

$$$$

     RDKit          3D

 14 15  0  0  0  0  0  0  0  0999 V2000
  -27.7290   -7.3680  -31.2840 C   0  0  0  0  0  0  0  0  0  0  0  0
  -27.7470   -6.7800  -32.5130 N   0  0  0  0  0  0  0  0  0  0  0  0
  -27.3700   -8.8190  -31.1400 N   0  0  0  0  0  0  0  0  0  0  0  0
  -28.0620   -5.4820  -32.3600 C   0  0  0  0  0  0  0  0  0  0  0  0
  -28.2390   -5.2800  -31.0260 N   0  0  0  0  0  0  0  0  0  0  0  0
  -28.0380   -6.4160  -30.3830 N   0  0  0  0  0  0  0  0  0  0  0  0
  -27.8490   -6.7750  -28.9520 C   0  0  0  0  0  0  0  0  0  0  0  0
  -28.0680   -9.6110  -30.7350 C   0  0  1  0  0  0  0  0  0  0  0  0
  -29.4720   -9.3040  -30.2890 C   0  0  0  0  0  0  0  0  0  0  0  0
  -29.9290  -10.2390  -29.3870 O   0  0  0  0  0  0  0  0  0  0  0  0
  -29.9440  -11.5300  -29.9140 C   0  0  0  0  0  0  0  0  0  0  0  0
  -28.5410  -11.9520  -30.3330 C   0  0  0  0  0  0  0  0  0  0  0  0
  -28.0630  -10.9570  -31.3850 C   0  0  0  0  0  0  0  0  0  0  0  0
  -28.0370  -12.7730  -29.9400 O   0  0  0  0  0  0  0  0  0  0  0  0
  1  2  2  0
  1  3  1  0
  1  6  1  0
  2  4  1  0
  8  3  1  6
  4  5  2  0
  5  6  1  0
  6  7  1  0
  8 13  1  0
  8  9  1  0
  9 10  1  0
 10 11  1  0
 11 12  1  0
 12 13  1  0
 12 14  2  0
M  END
>  <name>  (345) 
Car Nac Nd0 Car Nac Nac Cs3 C3r C3r O_a C3r C2r C3r .=O

>  <indices>  (345) 
[0, 1, 2]

>  <tasks>  (345) 
probe_placing close_aromatic_ring close_aromatic_ring close_aromatic_ring ring_built build_to_Nac build_to_Nd0 close_aliphatic_ring close_aliphatic_ring close_aliphatic_ring close_aliphatic_ring close_aliphatic_ring

>  <prot_clashes>  (345) 
6

>  <NBS phar>  (345) 
0.26000000000000006

>  <NBS_non-phar>  (345) 
0.4233912059238979

>  <NBS>  (345) 
0.683391205923898

>  <source_stage>  (345) 
scored

>  <source_iter>  (345) 
11

>  <source_parent_mol>  (345) 
0

>  <source_scenario>  (345) 
1 2 3 1 0 7 3 3 2 0 0

>  <source_rank_in_scored_call>  (345) 
3

>  <source_current_task>  (345) 
build_DB_to_Cs2

>  <scenario>  (345) 
1 2 3 1 0 7 3 3 2 0

>  <protected_ring_attachments>  (345) 
3,1,0,2|1,0,2;4,5,0,2|5,0,2;9,8,7,2|8,7,2;11,12,7,2|12,7,2

>  <current_task>  (345) 
no_task

>  <rotatable_bond_torsions>  (345) 
1,0,2,7;0,2,7,8

$$$$

     RDKit          3D

 15 16  0  0  0  0  0  0  0  0999 V2000
  -27.6260   -8.0980  -30.7900 C   0  0  0  0  0  0  0  0  0  0  0  0
  -27.7240   -7.2350  -31.8400 N   0  0  0  0  0  0  0  0  0  0  0  0
  -27.2970   -9.5450  -31.0230 N   0  0  0  0  0  0  0  0  0  0  0  0
  -27.9910   -6.0070  -31.3600 C   0  0  0  0  0  0  0  0  0  0  0  0
  -28.0560   -6.1260  -30.0050 N   0  0  0  0  0  0  0  0  0  0  0  0
  -27.8380   -7.3850  -29.6670 N   0  0  0  0  0  0  0  0  0  0  0  0
  -27.5490   -8.0750  -28.3820 C   0  0  0  0  0  0  0  0  0  0  0  0
  -27.9840  -10.4050  -30.7600 C   0  0  1  0  0  0  0  0  0  0  0  0
  -29.3390  -10.2000  -30.1400 C   0  0  0  0  0  0  0  0  0  0  0  0
  -29.7510  -11.3190  -29.4490 O   0  0  0  0  0  0  0  0  0  0  0  0
  -29.8420  -12.4480  -30.2640 C   0  0  0  0  0  0  0  0  0  0  0  0
  -28.4880  -12.7700  -30.8840 C   0  0  0  0  0  0  0  0  0  0  0  0
  -28.0660  -11.5570  -31.7080 C   0  0  0  0  0  0  0  0  0  0  0  0
  -27.9360  -13.7670  -31.0180 O   0  0  0  0  0  0  0  0  0  0  0  0
  -28.1800   -4.7450  -32.1640 C   0  0  0  0  0  0  0  0  0  0  0  0
  1  2  2  0
  1  3  1  0
  1  6  1  0
  2  4  1  0
  8  3  1  6
  4 15  1  0
  4  5  2  0
  5  6  1  0
  6  7  1  0
  8 13  1  0
  8  9  1  0
  9 10  1  0
 10 11  1  0
 11 12  1  0
 12 13  1  0
 12 14  2  0
M  END
>  <name>  (346) 
Car Nac Nd0 Car Nac Nac Cs3 C3r C3r O_a C3r C2r C3r .=O Cs3

>  <indices>  (346) 
[0, 1, 2]

>  <tasks>  (346) 
probe_placing close_aromatic_ring close_aromatic_ring close_aromatic_ring ring_built build_to_Nac build_to_Nd0 close_aliphatic_ring close_aliphatic_ring close_aliphatic_ring close_aliphatic_ring close_aliphatic_ring build_DB_to_Cs2

>  <prot_clashes>  (346) 
9

>  <NBS phar>  (346) 
0.24000000000000005

>  <NBS_non-phar>  (346) 
0.49505831400553385

>  <NBS>  (346) 
0.7350583140055339

>  <source_stage>  (346) 
scored

>  <source_iter>  (346) 
12

>  <source_parent_mol>  (346) 
2

>  <source_scenario>  (346) 
1 2 3 1 0 7 3 3 2 0 0 2

>  <source_rank_in_scored_call>  (346) 
38

>  <source_current_task>  (346) 
no_task

>  <scenario>  (346) 
1 2 3 1 0 7 3 3 2 0 0

>  <protected_ring_attachments>  (346) 
3,1,0,2|1,0,2;4,5,0,2|5,0,2;9,8,7,2|8,7,2;11,12,7,2|12,7,2

>  <current_task>  (346) 
no_task

>  <rotatable_bond_torsions>  (346) 
1,0,2,7;0,2,7,8

$$$$

     RDKit          3D

 15 16  0  0  0  0  0  0  0  0999 V2000
  -27.6670   -7.3220  -31.3920 C   0  0  0  0  0  0  0  0  0  0  0  0
  -27.6970   -6.7690  -32.6370 N   0  0  0  0  0  0  0  0  0  0  0  0
  -27.3330   -8.7760  -31.2130 N   0  0  0  0  0  0  0  0  0  0  0  0
  -27.9850   -5.4610  -32.5150 C   0  0  0  0  0  0  0  0  0  0  0  0
  -28.1320   -5.2180  -31.1830 N   0  0  0  0  0  0  0  0  0  0  0  0
  -27.9420   -6.3400  -30.5120 N   0  0  0  0  0  0  0  0  0  0  0  0
  -27.7340   -6.6630  -29.0760 C   0  0  0  0  0  0  0  0  0  0  0  0
  -28.0390   -9.5420  -30.7730 C   0  0  1  0  0  0  0  0  0  0  0  0
  -29.4280   -9.1950  -30.3100 C   0  0  0  0  0  0  0  0  0  0  0  0
  -29.8860  -10.0950  -29.3740 O   0  0  0  0  0  0  0  0  0  0  0  0
  -29.9350  -11.4010  -29.8640 C   0  0  0  0  0  0  0  0  0  0  0  0
  -28.5480  -11.8620  -30.2960 C   0  0  0  0  0  0  0  0  0  0  0  0
  -28.0710  -10.9060  -31.3850 C   0  0  0  0  0  0  0  0  0  0  0  0
  -27.9940  -12.8520  -30.1280 O   0  0  0  0  0  0  0  0  0  0  0  0
  -29.1180   -6.4750  -28.3860 C   0  0  0  0  0  0  0  0  0  0  0  0
  1  2  2  0
  1  3  1  0
  1  6  1  0
  2  4  1  0
  8  3  1  6
  4  5  2  0
  5  6  1  0
  6  7  1  0
  8 13  1  0
  8  9  1  0
  9 10  1  0
 10 11  1  0
 11 12  1  0
 12 13  1  0
 12 14  2  0
  7 15  1  0
M  END
>  <name>  (347) 
Car Nac Nd0 Car Nac Nac Cs3 C3r C3r O_a C3r C2r C3r .=O Cs3

>  <indices>  (347) 
[0, 1, 2]

>  <tasks>  (347) 
probe_placing close_aromatic_ring close_aromatic_ring close_aromatic_ring ring_built build_to_Nac build_to_Nd0 close_aliphatic_ring close_aliphatic_ring close_aliphatic_ring close_aliphatic_ring close_aliphatic_ring build_DB_to_Cs2

>  <prot_clashes>  (347) 
9

>  <NBS phar>  (347) 
0.24000000000000005

>  <NBS_non-phar>  (347) 
0.39334678649902344

>  <NBS>  (347) 
0.6333467864990234

>  <source_stage>  (347) 
scored

>  <source_iter>  (347) 
12

>  <source_parent_mol>  (347) 
2

>  <source_scenario>  (347) 
1 2 3 1 0 7 3 3 2 0 0 2

>  <source_rank_in_scored_call>  (347) 
115

>  <source_current_task>  (347) 
no_task

>  <scenario>  (347) 
1 2 3 1 0 7 3 3 2 0 0

>  <protected_ring_attachments>  (347) 
3,1,0,2|1,0,2;4,5,0,2|5,0,2;9,8,7,2|8,7,2;11,12,7,2|12,7,2

>  <current_task>  (347) 
no_task

>  <rotatable_bond_torsions>  (347) 
1,0,2,7;0,2,7,8

$$$$

     RDKit          3D

 15 16  0  0  0  0  0  0  0  0999 V2000
  -27.8690   -7.2710  -31.2460 C   0  0  0  0  0  0  0  0  0  0  0  0
  -27.8770   -6.9140  -32.5610 N   0  0  0  0  0  0  0  0  0  0  0  0
  -27.4610   -8.6580  -30.8370 N   0  0  0  0  0  0  0  0  0  0  0  0
  -28.2440   -5.6230  -32.6500 C   0  0  0  0  0  0  0  0  0  0  0  0
  -28.4610   -5.1920  -31.3760 N   0  0  0  0  0  0  0  0  0  0  0  0
  -28.2360   -6.1870  -30.5360 N   0  0  0  0  0  0  0  0  0  0  0  0
  -28.0710   -6.2770  -29.0610 C   0  0  0  0  0  0  0  0  0  0  0  0
  -28.1410   -9.3920  -30.3090 C   0  0  1  0  0  0  0  0  0  0  0  0
  -29.5650   -9.0670  -29.9520 C   0  0  0  0  0  0  0  0  0  0  0  0
  -30.0110   -9.8430  -28.9050 O   0  0  0  0  0  0  0  0  0  0  0  0
  -29.9660  -11.2070  -29.1920 C   0  0  0  0  0  0  0  0  0  0  0  0
  -28.5380  -11.6410  -29.5020 C   0  0  0  0  0  0  0  0  0  0  0  0
  -28.0700  -10.8310  -30.7070 C   0  0  0  0  0  0  0  0  0  0  0  0
  -27.9370  -12.5590  -29.1670 O   0  0  0  0  0  0  0  0  0  0  0  0
  -27.9750   -4.9090  -28.3810 C   0  0  0  0  0  0  0  0  0  0  0  0
  1  2  2  0
  1  3  1  0
  1  6  1  0
  2  4  1  0
  8  3  1  6
  4  5  2  0
  5  6  1  0
  6  7  1  0
  8 13  1  0
  8  9  1  0
  9 10  1  0
 10 11  1  0
 11 12  1  0
 12 13  1  0
 12 14  2  0
  7 15  1  0
M  END
>  <name>  (348) 
Car Nac Nd0 Car Nac Nac Cs3 C3r C3r O_a C3r C2r C3r .=O Cs3

>  <indices>  (348) 
[0, 1, 2]

>  <tasks>  (348) 
probe_placing close_aromatic_ring close_aromatic_ring close_aromatic_ring ring_built build_to_Nac build_to_Nd0 close_aliphatic_ring close_aliphatic_ring close_aliphatic_ring close_aliphatic_ring close_aliphatic_ring build_DB_to_Cs2

>  <prot_clashes>  (348) 
12

>  <NBS phar>  (348) 
0.15999999999999998

>  <NBS_non-phar>  (348) 
0.43690627415974936

>  <NBS>  (348) 
0.5969062741597493

>  <source_stage>  (348) 
scored

>  <source_iter>  (348) 
12

>  <source_parent_mol>  (348) 
2

>  <source_scenario>  (348) 
1 2 3 1 0 7 3 3 2 0 0 2

>  <source_rank_in_scored_call>  (348) 
131

>  <source_current_task>  (348) 
no_task

>  <scenario>  (348) 
1 2 3 1 0 7 3 3 2 0 0

>  <protected_ring_attachments>  (348) 
3,1,0,2|1,0,2;4,5,0,2|5,0,2;9,8,7,2|8,7,2;11,12,7,2|12,7,2

>  <current_task>  (348) 
no_task

>  <rotatable_bond_torsions>  (348) 
1,0,2,7;0,2,7,8

$$$$

     RDKit          3D

 15 16  0  0  0  0  0  0  0  0999 V2000
  -27.8200   -7.2620  -31.2140 C   0  0  0  0  0  0  0  0  0  0  0  0
  -27.7970   -6.8500  -32.5130 N   0  0  0  0  0  0  0  0  0  0  0  0
  -27.4330   -8.6680  -30.8550 N   0  0  0  0  0  0  0  0  0  0  0  0
  -28.1500   -5.5530  -32.5560 C   0  0  0  0  0  0  0  0  0  0  0  0
  -28.3910   -5.1740  -31.2700 N   0  0  0  0  0  0  0  0  0  0  0  0
  -28.1920   -6.2040  -30.4680 N   0  0  0  0  0  0  0  0  0  0  0  0
  -28.0610   -6.3570  -28.9950 C   0  0  0  0  0  0  0  0  0  0  0  0
  -28.1310   -9.4170  -30.3730 C   0  0  1  0  0  0  0  0  0  0  0  0
  -29.5600   -9.0930  -30.0320 C   0  0  0  0  0  0  0  0  0  0  0  0
  -30.0350   -9.9070  -29.0280 O   0  0  0  0  0  0  0  0  0  0  0  0
  -29.9950  -11.2590  -29.3710 C   0  0  0  0  0  0  0  0  0  0  0  0
  -28.5650  -11.6930  -29.6680 C   0  0  0  0  0  0  0  0  0  0  0  0
  -28.0640  -10.8390  -30.8290 C   0  0  0  0  0  0  0  0  0  0  0  0
  -27.9790  -12.6300  -29.3600 O   0  0  0  0  0  0  0  0  0  0  0  0
  -27.7980   -4.9050  -28.3970 C   0  0  0  0  0  0  0  0  0  0  0  0
  1  2  2  0
  1  3  1  0
  1  6  1  0
  2  4  1  0
  8  3  1  6
  4  5  2  0
  5  6  1  0
  6  7  1  0
  8 13  1  0
  8  9  1  0
  9 10  1  0
 10 11  1  0
 11 12  1  0
 12 13  1  0
 12 14  2  0
  7 15  1  0
M  END
>  <name>  (349) 
Car Nac Nd0 Car Nac Nac Cs3 C3r C3r O_a C3r C2r C3r .=O Cs3

>  <indices>  (349) 
[0, 1, 2]

>  <tasks>  (349) 
probe_placing close_aromatic_ring close_aromatic_ring close_aromatic_ring ring_built build_to_Nac build_to_Nd0 close_aliphatic_ring close_aliphatic_ring close_aliphatic_ring close_aliphatic_ring close_aliphatic_ring build_DB_to_Cs2

>  <prot_clashes>  (349) 
12

>  <NBS phar>  (349) 
0.1

>  <NBS_non-phar>  (349) 
0.48700396219889325

>  <NBS>  (349) 
0.5870039621988933

>  <source_stage>  (349) 
scored

>  <source_iter>  (349) 
12

>  <source_parent_mol>  (349) 
2

>  <source_scenario>  (349) 
1 2 3 1 0 7 3 3 2 0 0 2

>  <source_rank_in_scored_call>  (349) 
136

>  <source_current_task>  (349) 
no_task

>  <scenario>  (349) 
1 2 3 1 0 7 3 3 2 0 0

>  <protected_ring_attachments>  (349) 
3,1,0,2|1,0,2;4,5,0,2|5,0,2;9,8,7,2|8,7,2;11,12,7,2|12,7,2

>  <current_task>  (349) 
no_task

>  <rotatable_bond_torsions>  (349) 
1,0,2,7;0,2,7,8

$$$$

     RDKit          3D

 12 13  0  0  0  0  0  0  0  0999 V2000
  -27.7360   -7.2850  -31.0690 C   0  0  0  0  0  0  0  0  0  0  0  0
  -27.6380   -6.8270  -32.3500 N   0  0  0  0  0  0  0  0  0  0  0  0
  -27.2440   -8.6600  -30.7120 N   0  0  0  0  0  0  0  0  0  0  0  0
  -28.1110   -5.5700  -32.3900 C   0  0  0  0  0  0  0  0  0  0  0  0
  -28.5010   -5.2610  -31.1230 N   0  0  0  0  0  0  0  0  0  0  0  0
  -28.2740   -6.2960  -30.3310 N   0  0  0  0  0  0  0  0  0  0  0  0
  -28.2590   -6.4860  -28.8580 C   0  0  0  0  0  0  0  0  0  0  0  0
  -28.0070   -9.7840  -31.0930 C   0  0  2  0  0  0  0  0  0  0  0  0
  -29.4610   -9.5700  -31.4650 C   0  0  0  0  0  0  0  0  0  0  0  0
  -29.9370  -10.7510  -32.0050 O   0  0  0  0  0  0  0  0  0  0  0  0
  -29.0520  -11.7680  -31.7620 C   0  0  0  0  0  0  0  0  0  0  0  0
  -28.0630  -11.2490  -30.7250 C   0  0  0  0  0  0  0  0  0  0  0  0
  1  2  2  0
  1  3  1  0
  1  6  1  0
  2  4  1  0
  8  3  1  1
  4  5  2  0
  5  6  1  0
  6  7  1  0
  8  9  1  0
  8 12  1  0
  9 10  1  0
 10 11  1  0
 11 12  1  0
M  END
>  <name>  (350) 
Car Nac Nd0 Car Nac Nac Cs3 C3r C3r O_a C3r C3r

>  <indices>  (350) 
[0, 1, 2]

>  <tasks>  (350) 
probe_placing close_aromatic_ring close_aromatic_ring close_aromatic_ring ring_built build_to_Nac build_to_Nd0 close_aliphatic_ring close_aliphatic_ring close_aliphatic_ring

>  <prot_clashes>  (350) 
5

>  <NBS phar>  (350) 
0.2

>  <NBS_non-phar>  (350) 
0.4880826473236084

>  <NBS>  (350) 
0.6880826473236084

>  <source_stage>  (350) 
scored

>  <source_iter>  (350) 
9

>  <source_parent_mol>  (350) 
0

>  <source_scenario>  (350) 
1 2 3 1 0 7 4 0 0

>  <source_rank_in_scored_call>  (350) 
3

>  <source_current_task>  (350) 
close_aliphatic_ring

>  <scenario>  (350) 
1 2 3 1 0 7 4 0

>  <protected_ring_attachments>  (350) 
3,1,0,2|1,0,2;4,5,0,2|5,0,2

>  <current_task>  (350) 
no_task

>  <rotatable_bond_torsions>  (350) 
1,0,2,7;0,2,7,8;2,7,8,9;7,8,9,10

$$$$

     RDKit          3D

 13 14  0  0  0  0  0  0  0  0999 V2000
  -27.7580   -7.2630  -30.9690 C   0  0  0  0  0  0  0  0  0  0  0  0
  -27.6690   -6.9790  -32.3000 N   0  0  0  0  0  0  0  0  0  0  0  0
  -27.2650   -8.5790  -30.4380 N   0  0  0  0  0  0  0  0  0  0  0  0
  -28.1420   -5.7370  -32.5040 C   0  0  0  0  0  0  0  0  0  0  0  0
  -28.5210   -5.2630  -31.2850 N   0  0  0  0  0  0  0  0  0  0  0  0
  -28.2890   -6.1840  -30.3660 N   0  0  0  0  0  0  0  0  0  0  0  0
  -28.2630   -6.1780  -28.8800 C   0  0  0  0  0  0  0  0  0  0  0  0
  -28.1940   -9.7200  -30.2680 C   0  0  1  0  0  0  0  0  0  0  0  0
  -29.4450   -9.5840  -31.1300 C   0  0  0  0  0  0  0  0  0  0  0  0
  -30.1170  -10.7730  -31.2410 O   0  0  0  0  0  0  0  0  0  0  0  0
  -29.3650  -11.7630  -31.8110 C   0  0  0  0  0  0  0  0  0  0  0  0
  -28.1310  -12.0650  -31.0150 C   0  0  0  0  0  0  0  0  0  0  0  0
  -27.3090  -10.7650  -30.9560 C   0  0  0  0  0  0  0  0  0  0  0  0
  1  2  2  0
  1  3  1  0
  1  6  1  0
  2  4  1  0
  8  3  1  6
  4  5  2  0
  5  6  1  0
  6  7  1  0
  8  9  1  0
  8 13  1  0
  9 10  1  0
 10 11  1  0
 11 12  1  0
 12 13  1  0
M  END
>  <name>  (351) 
Car Nac Nd0 Car Nac Nac Cs3 C3r C3r O_a C3r C3r C3r

>  <indices>  (351) 
[0, 1, 2]

>  <tasks>  (351) 
probe_placing close_aromatic_ring close_aromatic_ring close_aromatic_ring ring_built build_to_Nac build_to_Nd0 close_aliphatic_ring close_aliphatic_ring close_aliphatic_ring close_aliphatic_ring

>  <prot_clashes>  (351) 
12

>  <NBS phar>  (351) 
0.2

>  <NBS_non-phar>  (351) 
0.4438742490915152

>  <NBS>  (351) 
0.6438742490915152

>  <source_stage>  (351) 
scored

>  <source_iter>  (351) 
10

>  <source_parent_mol>  (351) 
0

>  <source_scenario>  (351) 
1 2 3 1 0 7 4 0 0 0

>  <source_rank_in_scored_call>  (351) 
0

>  <source_current_task>  (351) 
close_aliphatic_ring

>  <scenario>  (351) 
1 2 3 1 0 7 4 0 0

>  <protected_ring_attachments>  (351) 
3,1,0,2|1,0,2;4,5,0,2|5,0,2

>  <current_task>  (351) 
no_task

>  <rotatable_bond_torsions>  (351) 
1,0,2,7;0,2,7,8;2,7,8,9;7,8,9,10;8,9,10,11

$$$$

     RDKit          3D

 13 14  0  0  0  0  0  0  0  0999 V2000
  -27.7770   -7.2910  -30.7820 C   0  0  0  0  0  0  0  0  0  0  0  0
  -28.0030   -7.2190  -32.1250 N   0  0  0  0  0  0  0  0  0  0  0  0
  -27.2250   -8.5470  -30.1700 N   0  0  0  0  0  0  0  0  0  0  0  0
  -28.4580   -5.9880  -32.4160 C   0  0  0  0  0  0  0  0  0  0  0  0
  -28.5080   -5.3060  -31.2390 N   0  0  0  0  0  0  0  0  0  0  0  0
  -28.0990   -6.0940  -30.2590 N   0  0  0  0  0  0  0  0  0  0  0  0
  -27.7100   -5.8650  -28.8430 C   0  0  0  0  0  0  0  0  0  0  0  0
  -28.0850   -9.4010  -30.0560 C   0  0  1  0  0  0  0  0  0  0  0  0
  -29.5870   -9.4310  -30.1090 C   0  0  0  0  0  0  0  0  0  0  0  0
  -30.0890  -10.6520  -29.6930 O   0  0  0  0  0  0  0  0  0  0  0  0
  -29.6290  -11.6930  -30.4760 C   0  0  0  0  0  0  0  0  0  0  0  0
  -28.1270  -11.7890  -30.4420 C   0  0  0  0  0  0  0  0  0  0  0  0
  -27.5770  -10.4860  -30.9660 C   0  0  0  0  0  0  0  0  0  0  0  0
  1  2  2  0
  1  6  1  0
  1  3  1  0
  2  4  1  0
  8  3  1  6
  4  5  2  0
  5  6  1  0
  6  7  1  0
  8 13  1  0
  8  9  1  0
  9 10  1  0
 10 11  1  0
 11 12  1  0
 12 13  1  0
M  END
>  <name>  (352) 
Car Nac Nd0 Car Nac Nac Cs3 C3r C3r O_a C3r C3r C3r

>  <indices>  (352) 
[0, 1, 2]

>  <tasks>  (352) 
probe_placing close_aromatic_ring close_aromatic_ring close_aromatic_ring ring_built build_to_Nac build_to_Nd0 close_aliphatic_ring close_aliphatic_ring close_aliphatic_ring close_aliphatic_ring

>  <prot_clashes>  (352) 
8

>  <NBS phar>  (352) 
0.02

>  <NBS_non-phar>  (352) 
0.3048984454228328

>  <NBS>  (352) 
0.3248984454228328

>  <source_stage>  (352) 
scored

>  <source_iter>  (352) 
10

>  <source_parent_mol>  (352) 
0

>  <source_scenario>  (352) 
1 2 3 1 0 7 4 0 0 0

>  <source_rank_in_scored_call>  (352) 
2

>  <source_current_task>  (352) 
close_aliphatic_ring

>  <scenario>  (352) 
1 2 3 1 0 7 4 0 0

>  <protected_ring_attachments>  (352) 
3,1,0,2|1,0,2;4,5,0,2|5,0,2

>  <current_task>  (352) 
no_task

>  <rotatable_bond_torsions>  (352) 
1,0,2,7;0,2,7,8;2,7,8,9;7,8,9,10;8,9,10,11

$$$$

     RDKit          3D

 14 15  0  0  0  0  0  0  0  0999 V2000
  -27.9670   -6.6470  -30.6770 C   0  0  0  0  0  0  0  0  0  0  0  0
  -27.0450   -6.6100  -31.6810 N   0  0  0  0  0  0  0  0  0  0  0  0
  -27.9790   -7.7860  -29.6980 N   0  0  0  0  0  0  0  0  0  0  0  0
  -27.2270   -5.4800  -32.3860 C   0  0  0  0  0  0  0  0  0  0  0  0
  -28.2680   -4.8240  -31.8030 N   0  0  0  0  0  0  0  0  0  0  0  0
  -28.7100   -5.5300  -30.7770 N   0  0  0  0  0  0  0  0  0  0  0  0
  -29.6270   -5.2430  -29.6440 C   0  0  0  0  0  0  0  0  0  0  0  0
  -28.8570   -8.9590  -29.9160 C   0  0  1  0  0  0  0  0  0  0  0  0
  -29.2750   -9.1080  -31.3750 C   0  0  0  0  0  0  0  0  0  0  0  0
  -29.7790  -10.3560  -31.6340 O   0  0  0  0  0  0  0  0  0  0  0  0
  -28.8810  -11.3580  -31.3890 C   0  0  0  0  0  0  0  0  0  0  0  0
  -28.4420  -11.3850  -29.9550 C   0  0  0  0  0  0  0  0  0  0  0  0
  -27.7840  -10.0240  -29.6650 C   0  0  0  0  0  0  0  0  0  0  0  0
  -29.1200   -4.3930  -28.4460 C   0  0  0  0  0  0  0  0  0  0  0  0
  1  2  2  0
  1  6  1  0
  1  3  1  0
  2  4  1  0
  8  3  1  6
  4  5  2  0
  5  6  1  0
  6  7  1  0
  8  9  1  0
  8 13  1  0
  9 10  1  0
 10 11  1  0
 11 12  1  0
 12 13  1  0
  7 14  1  0
M  END
>  <name>  (353) 
Car Nac Nd0 Car Nac Nac Cs3 C3r C3r O_a C3r C3r C3r Cs3

>  <indices>  (353) 
[0, 1, 2]

>  <tasks>  (353) 
probe_placing close_aromatic_ring close_aromatic_ring close_aromatic_ring ring_built build_to_Nac build_to_Nd0 close_aliphatic_ring close_aliphatic_ring close_aliphatic_ring close_aliphatic_ring close_aliphatic_ring

>  <prot_clashes>  (353) 
9

>  <NBS phar>  (353) 
0.24000000000000005

>  <NBS_non-phar>  (353) 
0.35893447058541433

>  <NBS>  (353) 
0.5989344705854144

>  <source_stage>  (353) 
scored

>  <source_iter>  (353) 
11

>  <source_parent_mol>  (353) 
0

>  <source_scenario>  (353) 
1 2 3 1 0 7 4 0 0 0 0

>  <source_rank_in_scored_call>  (353) 
6

>  <source_current_task>  (353) 
no_task

>  <scenario>  (353) 
1 2 3 1 0 7 4 0 0 0

>  <protected_ring_attachments>  (353) 
3,1,0,2|1,0,2;4,5,0,2|5,0,2;9,8,7,2|8,7,2;11,12,7,2|12,7,2

>  <current_task>  (353) 
no_task

>  <rotatable_bond_torsions>  (353) 
1,0,2,7;0,2,7,8

$$$$

     RDKit          3D

 14 15  0  0  0  0  0  0  0  0999 V2000
  -27.8140   -6.8310  -30.4270 C   0  0  0  0  0  0  0  0  0  0  0  0
  -27.7220   -7.3060  -31.7020 N   0  0  0  0  0  0  0  0  0  0  0  0
  -27.3320   -7.6590  -29.2700 N   0  0  0  0  0  0  0  0  0  0  0  0
  -28.1850   -6.3650  -32.5430 C   0  0  0  0  0  0  0  0  0  0  0  0
  -28.5610   -5.3080  -31.7710 N   0  0  0  0  0  0  0  0  0  0  0  0
  -28.3370   -5.5930  -30.5000 N   0  0  0  0  0  0  0  0  0  0  0  0
  -28.3110   -4.7900  -29.2500 C   0  0  0  0  0  0  0  0  0  0  0  0
  -28.2700   -8.5240  -28.5180 C   0  0  1  0  0  0  0  0  0  0  0  0
  -29.5200   -8.8640  -29.3240 C   0  0  0  0  0  0  0  0  0  0  0  0
  -30.2010   -9.9220  -28.7830 O   0  0  0  0  0  0  0  0  0  0  0  0
  -29.4570  -11.0680  -28.7280 C   0  0  0  0  0  0  0  0  0  0  0  0
  -28.2260  -10.9030  -27.8890 C   0  0  0  0  0  0  0  0  0  0  0  0
  -27.3930   -9.7810  -28.5330 C   0  0  0  0  0  0  0  0  0  0  0  0
  -29.7080   -4.7440  -28.6900 C   0  0  0  0  0  0  0  0  0  0  0  0
  1  2  2  0
  1  6  1  0
  1  3  1  0
  2  4  1  0
  8  3  1  6
  4  5  2  0
  5  6  1  0
  6  7  1  0
  8  9  1  0
  8 13  1  0
  9 10  1  0
 10 11  1  0
 11 12  1  0
 12 13  1  0
  7 14  1  0
M  END
>  <name>  (354) 
Car Nac Nd0 Car Nac Nac Cs3 C3r C3r O_a C3r C3r C3r Cs3

>  <indices>  (354) 
[0, 1, 2]

>  <tasks>  (354) 
probe_placing close_aromatic_ring close_aromatic_ring close_aromatic_ring ring_built build_to_Nac build_to_Nd0 close_aliphatic_ring close_aliphatic_ring close_aliphatic_ring close_aliphatic_ring close_aliphatic_ring

>  <prot_clashes>  (354) 
9

>  <NBS phar>  (354) 
0.02

>  <NBS_non-phar>  (354) 
0.46516476358686176

>  <NBS>  (354) 
0.4851647635868618

>  <source_stage>  (354) 
scored

>  <source_iter>  (354) 
11

>  <source_parent_mol>  (354) 
0

>  <source_scenario>  (354) 
1 2 3 1 0 7 4 0 0 0 0

>  <source_rank_in_scored_call>  (354) 
15

>  <source_current_task>  (354) 
no_task

>  <scenario>  (354) 
1 2 3 1 0 7 4 0 0 0

>  <protected_ring_attachments>  (354) 
3,1,0,2|1,0,2;4,5,0,2|5,0,2;9,8,7,2|8,7,2;11,12,7,2|12,7,2

>  <current_task>  (354) 
no_task

>  <rotatable_bond_torsions>  (354) 
1,0,2,7;0,2,7,8

$$$$

     RDKit          3D

 14 15  0  0  0  0  0  0  0  0999 V2000
  -27.7360   -6.7950  -30.4330 C   0  0  0  0  0  0  0  0  0  0  0  0
  -27.6220   -7.3010  -31.6940 N   0  0  0  0  0  0  0  0  0  0  0  0
  -27.2490   -7.5830  -29.2510 N   0  0  0  0  0  0  0  0  0  0  0  0
  -28.0950   -6.3910  -32.5640 C   0  0  0  0  0  0  0  0  0  0  0  0
  -28.5000   -5.3230  -31.8230 N   0  0  0  0  0  0  0  0  0  0  0  0
  -28.2840   -5.5710  -30.5430 N   0  0  0  0  0  0  0  0  0  0  0  0
  -28.2880   -4.7360  -29.3130 C   0  0  0  0  0  0  0  0  0  0  0  0
  -28.1770   -8.4490  -28.4860 C   0  0  1  0  0  0  0  0  0  0  0  0
  -29.4110   -8.8350  -29.2960 C   0  0  0  0  0  0  0  0  0  0  0  0
  -30.0760   -9.8930  -28.7340 O   0  0  0  0  0  0  0  0  0  0  0  0
  -29.3090  -11.0210  -28.6430 C   0  0  0  0  0  0  0  0  0  0  0  0
  -28.0910  -10.8100  -27.7960 C   0  0  0  0  0  0  0  0  0  0  0  0
  -27.2750   -9.6870  -28.4610 C   0  0  0  0  0  0  0  0  0  0  0  0
  -29.7830   -4.4220  -29.0080 C   0  0  0  0  0  0  0  0  0  0  0  0
  1  2  2  0
  1  6  1  0
  1  3  1  0
  2  4  1  0
  8  3  1  6
  4  5  2  0
  5  6  1  0
  6  7  1  0
  8  9  1  0
  8 13  1  0
  9 10  1  0
 10 11  1  0
 11 12  1  0
 12 13  1  0
  7 14  1  0
M  END
>  <name>  (355) 
Car Nac Nd0 Car Nac Nac Cs3 C3r C3r O_a C3r C3r C3r Cs3

>  <indices>  (355) 
[0, 1, 2]

>  <tasks>  (355) 
probe_placing close_aromatic_ring close_aromatic_ring close_aromatic_ring ring_built build_to_Nac build_to_Nd0 close_aliphatic_ring close_aliphatic_ring close_aliphatic_ring close_aliphatic_ring close_aliphatic_ring

>  <prot_clashes>  (355) 
8

>  <NBS phar>  (355) 
0.02

>  <NBS_non-phar>  (355) 
0.4400057111467634

>  <NBS>  (355) 
0.4600057111467634

>  <source_stage>  (355) 
scored

>  <source_iter>  (355) 
11

>  <source_parent_mol>  (355) 
0

>  <source_scenario>  (355) 
1 2 3 1 0 7 4 0 0 0 0

>  <source_rank_in_scored_call>  (355) 
19

>  <source_current_task>  (355) 
no_task

>  <scenario>  (355) 
1 2 3 1 0 7 4 0 0 0

>  <protected_ring_attachments>  (355) 
3,1,0,2|1,0,2;4,5,0,2|5,0,2;9,8,7,2|8,7,2;11,12,7,2|12,7,2

>  <current_task>  (355) 
no_task

>  <rotatable_bond_torsions>  (355) 
1,0,2,7;0,2,7,8

$$$$

     RDKit          3D

 14 15  0  0  0  0  0  0  0  0999 V2000
  -27.9530   -6.9660  -30.6830 C   0  0  0  0  0  0  0  0  0  0  0  0
  -27.1130   -6.8470  -31.7510 N   0  0  0  0  0  0  0  0  0  0  0  0
  -27.8960   -8.1830  -29.8040 N   0  0  0  0  0  0  0  0  0  0  0  0
  -27.3410   -5.6610  -32.3430 C   0  0  0  0  0  0  0  0  0  0  0  0
  -28.3280   -5.0550  -31.6270 N   0  0  0  0  0  0  0  0  0  0  0  0
  -28.6930   -5.8440  -30.6310 N   0  0  0  0  0  0  0  0  0  0  0  0
  -29.5150   -5.6510  -29.4080 C   0  0  0  0  0  0  0  0  0  0  0  0
  -28.7980   -9.3330  -30.0480 C   0  0  1  0  0  0  0  0  0  0  0  0
  -29.3320   -9.3590  -31.4770 C   0  0  0  0  0  0  0  0  0  0  0  0
  -29.8650  -10.5800  -31.7980 O   0  0  0  0  0  0  0  0  0  0  0  0
  -28.9590  -11.6000  -31.7090 C   0  0  0  0  0  0  0  0  0  0  0  0
  -28.4070  -11.7480  -30.3230 C   0  0  0  0  0  0  0  0  0  0  0  0
  -27.7180  -10.4170  -29.9730 C   0  0  0  0  0  0  0  0  0  0  0  0
  -29.2120   -4.3270  -28.6090 C   0  0  0  0  0  0  0  0  0  0  0  0
  1  2  2  0
  1  6  1  0
  1  3  1  0
  2  4  1  0
  8  3  1  6
  4  5  2  0
  5  6  1  0
  6  7  1  0
  8  9  1  0
  8 13  1  0
  9 10  1  0
 10 11  1  0
 11 12  1  0
 12 13  1  0
  7 14  1  0
M  END
>  <name>  (356) 
Car Nac Nd0 Car Nac Nac Cs3 C3r C3r O_a C3r C3r C3r Cs3

>  <indices>  (356) 
[0, 1, 2]

>  <tasks>  (356) 
probe_placing close_aromatic_ring close_aromatic_ring close_aromatic_ring ring_built build_to_Nac build_to_Nd0 close_aliphatic_ring close_aliphatic_ring close_aliphatic_ring close_aliphatic_ring close_aliphatic_ring

>  <prot_clashes>  (356) 
12

>  <NBS phar>  (356) 
0.12

>  <NBS_non-phar>  (356) 
0.26866304874420166

>  <NBS>  (356) 
0.38866304874420166

>  <source_stage>  (356) 
scored

>  <source_iter>  (356) 
11

>  <source_parent_mol>  (356) 
0

>  <source_scenario>  (356) 
1 2 3 1 0 7 4 0 0 0 0

>  <source_rank_in_scored_call>  (356) 
40

>  <source_current_task>  (356) 
no_task

>  <scenario>  (356) 
1 2 3 1 0 7 4 0 0 0

>  <protected_ring_attachments>  (356) 
3,1,0,2|1,0,2;4,5,0,2|5,0,2;9,8,7,2|8,7,2;11,12,7,2|12,7,2

>  <current_task>  (356) 
no_task

>  <rotatable_bond_torsions>  (356) 
1,0,2,7;0,2,7,8

$$$$

     RDKit          3D

 14 15  0  0  0  0  0  0  0  0999 V2000
  -27.8950   -7.1300  -30.3050 C   0  0  0  0  0  0  0  0  0  0  0  0
  -27.3650   -7.4220  -31.5270 N   0  0  0  0  0  0  0  0  0  0  0  0
  -27.7190   -8.0800  -29.1540 N   0  0  0  0  0  0  0  0  0  0  0  0
  -27.6320   -6.4030  -32.3620 C   0  0  0  0  0  0  0  0  0  0  0  0
  -28.3310   -5.4840  -31.6400 N   0  0  0  0  0  0  0  0  0  0  0  0
  -28.4870   -5.9260  -30.4040 N   0  0  0  0  0  0  0  0  0  0  0  0
  -28.9310   -5.3010  -29.1310 C   0  0  0  0  0  0  0  0  0  0  0  0
  -28.7560   -9.0910  -28.8450 C   0  0  1  0  0  0  0  0  0  0  0  0
  -29.6530   -9.3890  -30.0420 C   0  0  0  0  0  0  0  0  0  0  0  0
  -30.3630  -10.5480  -29.8690 O   0  0  0  0  0  0  0  0  0  0  0  0
  -29.5640  -11.6470  -29.7060 C   0  0  0  0  0  0  0  0  0  0  0  0
  -28.6780  -11.5280  -28.5030 C   0  0  0  0  0  0  0  0  0  0  0  0
  -27.8000  -10.2820  -28.7170 C   0  0  0  0  0  0  0  0  0  0  0  0
  -29.0800   -3.7800  -29.2250 C   0  0  0  0  0  0  0  0  0  0  0  0
  1  2  2  0
  1  6  1  0
  1  3  1  0
  2  4  1  0
  8  3  1  6
  4  5  2  0
  5  6  1  0
  6  7  1  0
  8  9  1  0
  8 13  1  0
  9 10  1  0
 10 11  1  0
 11 12  1  0
 12 13  1  0
  7 14  1  0
M  END
>  <name>  (357) 
Car Nac Nd0 Car Nac Nac Cs3 C3r C3r O_a C3r C3r C3r Cs3

>  <indices>  (357) 
[0, 1, 2]

>  <tasks>  (357) 
probe_placing close_aromatic_ring close_aromatic_ring close_aromatic_ring ring_built build_to_Nac build_to_Nd0 close_aliphatic_ring close_aliphatic_ring close_aliphatic_ring close_aliphatic_ring close_aliphatic_ring

>  <prot_clashes>  (357) 
10

>  <NBS phar>  (357) 
0.0

>  <NBS_non-phar>  (357) 
0.3327268532344273

>  <NBS>  (357) 
0.3327268532344273

>  <source_stage>  (357) 
scored

>  <source_iter>  (357) 
11

>  <source_parent_mol>  (357) 
0

>  <source_scenario>  (357) 
1 2 3 1 0 7 4 0 0 0 0

>  <source_rank_in_scored_call>  (357) 
45

>  <source_current_task>  (357) 
no_task

>  <scenario>  (357) 
1 2 3 1 0 7 4 0 0 0

>  <protected_ring_attachments>  (357) 
3,1,0,2|1,0,2;4,5,0,2|5,0,2;9,8,7,2|8,7,2;11,12,7,2|12,7,2

>  <current_task>  (357) 
no_task

>  <rotatable_bond_torsions>  (357) 
1,0,2,7;0,2,7,8

$$$$

     RDKit          3D

 13 14  0  0  0  0  0  0  0  0999 V2000
  -27.5520   -7.2830  -31.2470 C   0  0  0  0  0  0  0  0  0  0  0  0
  -27.6940   -6.7960  -32.5140 N   0  0  0  0  0  0  0  0  0  0  0  0
  -26.9750   -8.6510  -31.0170 N   0  0  0  0  0  0  0  0  0  0  0  0
  -28.1940   -5.5510  -32.4380 C   0  0  0  0  0  0  0  0  0  0  0  0
  -28.3580   -5.2780  -31.1150 N   0  0  0  0  0  0  0  0  0  0  0  0
  -27.9710   -6.3230  -30.4010 N   0  0  0  0  0  0  0  0  0  0  0  0
  -27.6890   -6.5420  -28.9600 C   0  0  0  0  0  0  0  0  0  0  0  0
  -27.7690   -9.7870  -31.2840 C   0  0  2  0  0  0  0  0  0  0  0  0
  -29.2700   -9.6020  -31.3860 C   0  0  0  0  0  0  0  0  0  0  0  0
  -29.8100  -10.7840  -31.8610 O   0  0  0  0  0  0  0  0  0  0  0  0
  -28.8740  -11.7830  -31.8040 C   0  0  0  0  0  0  0  0  0  0  0  0
  -27.7270  -11.2600  -30.9480 C   0  0  0  0  0  0  0  0  0  0  0  0
  -28.8780   -7.2840  -28.4000 C   0  0  0  0  0  0  0  0  0  0  0  0
  1  2  2  0
  1  3  1  0
  1  6  1  0
  2  4  1  0
  8  3  1  1
  4  5  2  0
  5  6  1  0
  6  7  1  0
  8  9  1  0
  8 12  1  0
  9 10  1  0
 10 11  1  0
 11 12  1  0
  7 13  1  0
M  END
>  <name>  (358) 
Car Nac Nd0 Car Nac Nac Cs3 C3r C3r O_a C3r C3r Cs3

>  <indices>  (358) 
[0, 1, 2]

>  <tasks>  (358) 
probe_placing close_aromatic_ring close_aromatic_ring close_aromatic_ring ring_built build_to_Nac build_to_Nd0 close_aliphatic_ring close_aliphatic_ring close_aliphatic_ring close_aliphatic_ring

>  <prot_clashes>  (358) 
9

>  <NBS phar>  (358) 
0.32

>  <NBS_non-phar>  (358) 
0.5205257489131048

>  <NBS>  (358) 
0.8405257489131048

>  <source_stage>  (358) 
scored

>  <source_iter>  (358) 
10

>  <source_parent_mol>  (358) 
3

>  <source_scenario>  (358) 
1 2 3 1 0 7 4 0 0 3

>  <source_rank_in_scored_call>  (358) 
14

>  <source_current_task>  (358) 
no_task

>  <scenario>  (358) 
1 2 3 1 0 7 4 0 0

>  <protected_ring_attachments>  (358) 
3,1,0,2|1,0,2;4,5,0,2|5,0,2;9,8,7,2|8,7,2;10,11,7,2|11,7,2

>  <current_task>  (358) 
no_task

>  <rotatable_bond_torsions>  (358) 
1,0,2,7;0,2,7,8

$$$$

     RDKit          3D

 13 14  0  0  0  0  0  0  0  0999 V2000
  -27.5450   -7.2860  -31.2630 C   0  0  0  0  0  0  0  0  0  0  0  0
  -27.6870   -6.7610  -32.5140 N   0  0  0  0  0  0  0  0  0  0  0  0
  -26.9580   -8.6570  -31.0750 N   0  0  0  0  0  0  0  0  0  0  0  0
  -28.1970   -5.5230  -32.4000 C   0  0  0  0  0  0  0  0  0  0  0  0
  -28.3660   -5.2930  -31.0700 N   0  0  0  0  0  0  0  0  0  0  0  0
  -27.9730   -6.3560  -30.3880 N   0  0  0  0  0  0  0  0  0  0  0  0
  -27.6930   -6.6190  -28.9540 C   0  0  0  0  0  0  0  0  0  0  0  0
  -27.7430   -9.7890  -31.3790 C   0  0  2  0  0  0  0  0  0  0  0  0
  -29.2450   -9.6130  -31.4790 C   0  0  0  0  0  0  0  0  0  0  0  0
  -29.7740  -10.7830  -31.9930 O   0  0  0  0  0  0  0  0  0  0  0  0
  -28.8310  -11.7760  -31.9650 C   0  0  0  0  0  0  0  0  0  0  0  0
  -27.6900  -11.2720  -31.0890 C   0  0  0  0  0  0  0  0  0  0  0  0
  -28.9890   -7.0980  -28.2840 C   0  0  0  0  0  0  0  0  0  0  0  0
  1  2  2  0
  1  3  1  0
  1  6  1  0
  2  4  1  0
  8  3  1  1
  4  5  2  0
  5  6  1  0
  6  7  1  0
  8  9  1  0
  8 12  1  0
  9 10  1  0
 10 11  1  0
 11 12  1  0
  7 13  1  0
M  END
>  <name>  (359) 
Car Nac Nd0 Car Nac Nac Cs3 C3r C3r O_a C3r C3r Cs3

>  <indices>  (359) 
[0, 1, 2]

>  <tasks>  (359) 
probe_placing close_aromatic_ring close_aromatic_ring close_aromatic_ring ring_built build_to_Nac build_to_Nd0 close_aliphatic_ring close_aliphatic_ring close_aliphatic_ring close_aliphatic_ring

>  <prot_clashes>  (359) 
10

>  <NBS phar>  (359) 
0.22000000000000003

>  <NBS_non-phar>  (359) 
0.6008438697228065

>  <NBS>  (359) 
0.8208438697228064

>  <source_stage>  (359) 
scored

>  <source_iter>  (359) 
10

>  <source_parent_mol>  (359) 
3

>  <source_scenario>  (359) 
1 2 3 1 0 7 4 0 0 3

>  <source_rank_in_scored_call>  (359) 
15

>  <source_current_task>  (359) 
no_task

>  <scenario>  (359) 
1 2 3 1 0 7 4 0 0

>  <protected_ring_attachments>  (359) 
3,1,0,2|1,0,2;4,5,0,2|5,0,2;9,8,7,2|8,7,2;10,11,7,2|11,7,2

>  <current_task>  (359) 
no_task

>  <rotatable_bond_torsions>  (359) 
1,0,2,7;0,2,7,8

$$$$

     RDKit          3D

 13 14  0  0  0  0  0  0  0  0999 V2000
  -27.7480   -7.2930  -31.0720 C   0  0  0  0  0  0  0  0  0  0  0  0
  -27.6090   -6.8140  -32.3420 N   0  0  0  0  0  0  0  0  0  0  0  0
  -27.2640   -8.6730  -30.7220 N   0  0  0  0  0  0  0  0  0  0  0  0
  -28.0850   -5.5580  -32.3770 C   0  0  0  0  0  0  0  0  0  0  0  0
  -28.5170   -5.2710  -31.1180 N   0  0  0  0  0  0  0  0  0  0  0  0
  -28.3130   -6.3180  -30.3360 N   0  0  0  0  0  0  0  0  0  0  0  0
  -28.3460   -6.5320  -28.8670 C   0  0  0  0  0  0  0  0  0  0  0  0
  -28.0100   -9.7920  -31.1460 C   0  0  2  0  0  0  0  0  0  0  0  0
  -29.4520   -9.5760  -31.5620 C   0  0  0  0  0  0  0  0  0  0  0  0
  -29.9060  -10.7490  -32.1370 O   0  0  0  0  0  0  0  0  0  0  0  0
  -29.0270  -11.7680  -31.8820 C   0  0  0  0  0  0  0  0  0  0  0  0
  -28.0740  -11.2630  -30.8050 C   0  0  0  0  0  0  0  0  0  0  0  0
  -27.1970   -7.3410  -28.3510 C   0  0  0  0  0  0  0  0  0  0  0  0
  1  2  2  0
  1  3  1  0
  1  6  1  0
  2  4  1  0
  8  3  1  1
  4  5  2  0
  5  6  1  0
  6  7  1  0
  8  9  1  0
  8 12  1  0
  9 10  1  0
 10 11  1  0
 11 12  1  0
  7 13  1  0
M  END
>  <name>  (360) 
Car Nac Nd0 Car Nac Nac Cs3 C3r C3r O_a C3r C3r Cs3

>  <indices>  (360) 
[0, 1, 2]

>  <tasks>  (360) 
probe_placing close_aromatic_ring close_aromatic_ring close_aromatic_ring ring_built build_to_Nac build_to_Nd0 close_aliphatic_ring close_aliphatic_ring close_aliphatic_ring close_aliphatic_ring

>  <prot_clashes>  (360) 
9

>  <NBS phar>  (360) 
0.24000000000000005

>  <NBS_non-phar>  (360) 
0.4931219174311711

>  <NBS>  (360) 
0.7331219174311712

>  <source_stage>  (360) 
scored

>  <source_iter>  (360) 
10

>  <source_parent_mol>  (360) 
3

>  <source_scenario>  (360) 
1 2 3 1 0 7 4 0 0 3

>  <source_rank_in_scored_call>  (360) 
26

>  <source_current_task>  (360) 
no_task

>  <scenario>  (360) 
1 2 3 1 0 7 4 0 0

>  <protected_ring_attachments>  (360) 
3,1,0,2|1,0,2;4,5,0,2|5,0,2;9,8,7,2|8,7,2;10,11,7,2|11,7,2

>  <current_task>  (360) 
no_task

>  <rotatable_bond_torsions>  (360) 
1,0,2,7;0,2,7,8

$$$$

     RDKit          3D

 13 14  0  0  0  0  0  0  0  0999 V2000
  -27.7350   -7.2830  -31.0690 C   0  0  0  0  0  0  0  0  0  0  0  0
  -27.6380   -6.8250  -32.3500 N   0  0  0  0  0  0  0  0  0  0  0  0
  -27.2430   -8.6590  -30.7140 N   0  0  0  0  0  0  0  0  0  0  0  0
  -28.1110   -5.5680  -32.3890 C   0  0  0  0  0  0  0  0  0  0  0  0
  -28.5000   -5.2590  -31.1220 N   0  0  0  0  0  0  0  0  0  0  0  0
  -28.2720   -6.2950  -30.3310 N   0  0  0  0  0  0  0  0  0  0  0  0
  -28.2560   -6.4850  -28.8580 C   0  0  0  0  0  0  0  0  0  0  0  0
  -28.0070   -9.7820  -31.0940 C   0  0  2  0  0  0  0  0  0  0  0  0
  -29.4610   -9.5680  -31.4650 C   0  0  0  0  0  0  0  0  0  0  0  0
  -29.9380  -10.7480  -32.0050 O   0  0  0  0  0  0  0  0  0  0  0  0
  -29.0530  -11.7660  -31.7630 C   0  0  0  0  0  0  0  0  0  0  0  0
  -28.0630  -11.2470  -30.7270 C   0  0  0  0  0  0  0  0  0  0  0  0
  -27.9780   -7.8360  -28.3000 C   0  0  0  0  0  0  0  0  0  0  0  0
  1  2  2  0
  1  3  1  0
  1  6  1  0
  2  4  1  0
  8  3  1  1
  4  5  2  0
  5  6  1  0
  6  7  1  0
  8  9  1  0
  8 12  1  0
  9 10  1  0
 10 11  1  0
 11 12  1  0
  7 13  1  0
M  END
>  <name>  (361) 
Car Nac Nd0 Car Nac Nac Cs3 C3r C3r O_a C3r C3r Cs3

>  <indices>  (361) 
[0, 1, 2]

>  <tasks>  (361) 
probe_placing close_aromatic_ring close_aromatic_ring close_aromatic_ring ring_built build_to_Nac build_to_Nd0 close_aliphatic_ring close_aliphatic_ring close_aliphatic_ring close_aliphatic_ring

>  <prot_clashes>  (361) 
6

>  <NBS phar>  (361) 
0.2

>  <NBS_non-phar>  (361) 
0.5004474566533015

>  <NBS>  (361) 
0.7004474566533014

>  <source_stage>  (361) 
scored

>  <source_iter>  (361) 
10

>  <source_parent_mol>  (361) 
3

>  <source_scenario>  (361) 
1 2 3 1 0 7 4 0 0 3

>  <source_rank_in_scored_call>  (361) 
33

>  <source_current_task>  (361) 
no_task

>  <scenario>  (361) 
1 2 3 1 0 7 4 0 0

>  <protected_ring_attachments>  (361) 
3,1,0,2|1,0,2;4,5,0,2|5,0,2;9,8,7,2|8,7,2;10,11,7,2|11,7,2

>  <current_task>  (361) 
no_task

>  <rotatable_bond_torsions>  (361) 
1,0,2,7;0,2,7,8

$$$$

     RDKit          3D

 13 14  0  0  0  0  0  0  0  0999 V2000
  -27.7360   -7.2840  -31.0690 C   0  0  0  0  0  0  0  0  0  0  0  0
  -27.6380   -6.8250  -32.3500 N   0  0  0  0  0  0  0  0  0  0  0  0
  -27.2430   -8.6590  -30.7130 N   0  0  0  0  0  0  0  0  0  0  0  0
  -28.1110   -5.5680  -32.3890 C   0  0  0  0  0  0  0  0  0  0  0  0
  -28.5000   -5.2600  -31.1220 N   0  0  0  0  0  0  0  0  0  0  0  0
  -28.2730   -6.2950  -30.3300 N   0  0  0  0  0  0  0  0  0  0  0  0
  -28.2560   -6.4860  -28.8580 C   0  0  0  0  0  0  0  0  0  0  0  0
  -28.0070   -9.7830  -31.0940 C   0  0  2  0  0  0  0  0  0  0  0  0
  -29.4610   -9.5680  -31.4650 C   0  0  0  0  0  0  0  0  0  0  0  0
  -29.9380  -10.7490  -32.0050 O   0  0  0  0  0  0  0  0  0  0  0  0
  -29.0530  -11.7660  -31.7630 C   0  0  0  0  0  0  0  0  0  0  0  0
  -28.0630  -11.2480  -30.7270 C   0  0  0  0  0  0  0  0  0  0  0  0
  -27.7750   -7.8190  -28.2810 C   0  0  0  0  0  0  0  0  0  0  0  0
  1  2  2  0
  1  3  1  0
  1  6  1  0
  2  4  1  0
  8  3  1  1
  4  5  2  0
  5  6  1  0
  6  7  1  0
  8  9  1  0
  8 12  1  0
  9 10  1  0
 10 11  1  0
 11 12  1  0
  7 13  1  0
M  END
>  <name>  (362) 
Car Nac Nd0 Car Nac Nac Cs3 C3r C3r O_a C3r C3r Cs3

>  <indices>  (362) 
[0, 1, 2]

>  <tasks>  (362) 
probe_placing close_aromatic_ring close_aromatic_ring close_aromatic_ring ring_built build_to_Nac build_to_Nd0 close_aliphatic_ring close_aliphatic_ring close_aliphatic_ring close_aliphatic_ring

>  <prot_clashes>  (362) 
6

>  <NBS phar>  (362) 
0.2

>  <NBS_non-phar>  (362) 
0.48433945729182315

>  <NBS>  (362) 
0.6843394572918231

>  <source_stage>  (362) 
scored

>  <source_iter>  (362) 
10

>  <source_parent_mol>  (362) 
3

>  <source_scenario>  (362) 
1 2 3 1 0 7 4 0 0 3

>  <source_rank_in_scored_call>  (362) 
41

>  <source_current_task>  (362) 
no_task

>  <scenario>  (362) 
1 2 3 1 0 7 4 0 0

>  <protected_ring_attachments>  (362) 
3,1,0,2|1,0,2;4,5,0,2|5,0,2;9,8,7,2|8,7,2;10,11,7,2|11,7,2

>  <current_task>  (362) 
no_task

>  <rotatable_bond_torsions>  (362) 
1,0,2,7;0,2,7,8

$$$$

     RDKit          3D

 13 14  0  0  0  0  0  0  0  0999 V2000
  -27.5680   -7.2250  -31.2450 C   0  0  0  0  0  0  0  0  0  0  0  0
  -27.6280   -6.7710  -32.5300 N   0  0  0  0  0  0  0  0  0  0  0  0
  -27.0570   -8.6070  -30.9490 N   0  0  0  0  0  0  0  0  0  0  0  0
  -28.0820   -5.5060  -32.5140 C   0  0  0  0  0  0  0  0  0  0  0  0
  -28.3010   -5.1880  -31.2080 N   0  0  0  0  0  0  0  0  0  0  0  0
  -27.9910   -6.2260  -30.4480 N   0  0  0  0  0  0  0  0  0  0  0  0
  -27.7910   -6.4130  -28.9880 C   0  0  0  0  0  0  0  0  0  0  0  0
  -27.8810   -9.7190  -31.2240 C   0  0  2  0  0  0  0  0  0  0  0  0
  -29.3670   -9.4820  -31.4080 C   0  0  0  0  0  0  0  0  0  0  0  0
  -29.9270  -10.6550  -31.8780 O   0  0  0  0  0  0  0  0  0  0  0  0
  -29.0350  -11.6870  -31.7460 C   0  0  0  0  0  0  0  0  0  0  0  0
  -27.9130  -11.1820  -30.8470 C   0  0  0  0  0  0  0  0  0  0  0  0
  -29.2080   -6.3550  -28.3450 C   0  0  0  0  0  0  0  0  0  0  0  0
  1  2  2  0
  1  3  1  0
  1  6  1  0
  2  4  1  0
  8  3  1  1
  4  5  2  0
  5  6  1  0
  6  7  1  0
  8  9  1  0
  8 12  1  0
  9 10  1  0
 10 11  1  0
 11 12  1  0
  7 13  1  0
M  END
>  <name>  (363) 
Car Nac Nd0 Car Nac Nac Cs3 C3r C3r O_a C3r C3r Cs3

>  <indices>  (363) 
[0, 1, 2]

>  <tasks>  (363) 
probe_placing close_aromatic_ring close_aromatic_ring close_aromatic_ring ring_built build_to_Nac build_to_Nd0 close_aliphatic_ring close_aliphatic_ring close_aliphatic_ring close_aliphatic_ring

>  <prot_clashes>  (363) 
9

>  <NBS phar>  (363) 
0.22000000000000003

>  <NBS_non-phar>  (363) 
0.4359438969538762

>  <NBS>  (363) 
0.6559438969538762

>  <source_stage>  (363) 
scored

>  <source_iter>  (363) 
10

>  <source_parent_mol>  (363) 
3

>  <source_scenario>  (363) 
1 2 3 1 0 7 4 0 0 3

>  <source_rank_in_scored_call>  (363) 
64

>  <source_current_task>  (363) 
no_task

>  <scenario>  (363) 
1 2 3 1 0 7 4 0 0

>  <protected_ring_attachments>  (363) 
3,1,0,2|1,0,2;4,5,0,2|5,0,2;9,8,7,2|8,7,2;10,11,7,2|11,7,2

>  <current_task>  (363) 
no_task

>  <rotatable_bond_torsions>  (363) 
1,0,2,7;0,2,7,8

$$$$

     RDKit          3D

 13 14  0  0  0  0  0  0  0  0999 V2000
  -27.5990   -7.2680  -31.2520 C   0  0  0  0  0  0  0  0  0  0  0  0
  -27.6780   -6.8080  -32.5340 N   0  0  0  0  0  0  0  0  0  0  0  0
  -27.0640   -8.6440  -30.9680 N   0  0  0  0  0  0  0  0  0  0  0  0
  -28.1500   -5.5500  -32.5070 C   0  0  0  0  0  0  0  0  0  0  0  0
  -28.3600   -5.2430  -31.1970 N   0  0  0  0  0  0  0  0  0  0  0  0
  -28.0280   -6.2790  -30.4460 N   0  0  0  0  0  0  0  0  0  0  0  0
  -27.8100   -6.4710  -28.9890 C   0  0  0  0  0  0  0  0  0  0  0  0
  -27.8740   -9.7660  -31.2410 C   0  0  2  0  0  0  0  0  0  0  0  0
  -29.3660   -9.5500  -31.4080 C   0  0  0  0  0  0  0  0  0  0  0  0
  -29.9140  -10.7290  -31.8780 O   0  0  0  0  0  0  0  0  0  0  0  0
  -29.0050  -11.7480  -31.7610 C   0  0  0  0  0  0  0  0  0  0  0  0
  -27.8810  -11.2320  -30.8700 C   0  0  0  0  0  0  0  0  0  0  0  0
  -29.1330   -6.8070  -28.3520 C   0  0  0  0  0  0  0  0  0  0  0  0
  1  2  2  0
  1  3  1  0
  1  6  1  0
  2  4  1  0
  8  3  1  1
  4  5  2  0
  5  6  1  0
  6  7  1  0
  8  9  1  0
  8 12  1  0
  9 10  1  0
 10 11  1  0
 11 12  1  0
  7 13  1  0
M  END
>  <name>  (364) 
Car Nac Nd0 Car Nac Nac Cs3 C3r C3r O_a C3r C3r Cs3

>  <indices>  (364) 
[0, 1, 2]

>  <tasks>  (364) 
probe_placing close_aromatic_ring close_aromatic_ring close_aromatic_ring ring_built build_to_Nac build_to_Nd0 close_aliphatic_ring close_aliphatic_ring close_aliphatic_ring close_aliphatic_ring

>  <prot_clashes>  (364) 
10

>  <NBS phar>  (364) 
0.22000000000000003

>  <NBS_non-phar>  (364) 
0.42219004264244664

>  <NBS>  (364) 
0.6421900426424467

>  <source_stage>  (364) 
scored

>  <source_iter>  (364) 
10

>  <source_parent_mol>  (364) 
3

>  <source_scenario>  (364) 
1 2 3 1 0 7 4 0 0 3

>  <source_rank_in_scored_call>  (364) 
69

>  <source_current_task>  (364) 
no_task

>  <scenario>  (364) 
1 2 3 1 0 7 4 0 0

>  <protected_ring_attachments>  (364) 
3,1,0,2|1,0,2;4,5,0,2|5,0,2;9,8,7,2|8,7,2;10,11,7,2|11,7,2

>  <current_task>  (364) 
no_task

>  <rotatable_bond_torsions>  (364) 
1,0,2,7;0,2,7,8

$$$$

     RDKit          3D

 13 14  0  0  0  0  0  0  0  0999 V2000
  -27.8610   -7.1880  -30.9360 C   0  0  0  0  0  0  0  0  0  0  0  0
  -27.4030   -6.8280  -32.1690 N   0  0  0  0  0  0  0  0  0  0  0  0
  -27.4290   -8.4860  -30.3130 N   0  0  0  0  0  0  0  0  0  0  0  0
  -27.9070   -5.6200  -32.4740 C   0  0  0  0  0  0  0  0  0  0  0  0
  -28.6790   -5.2430  -31.4180 N   0  0  0  0  0  0  0  0  0  0  0  0
  -28.6490   -6.1900  -30.4950 N   0  0  0  0  0  0  0  0  0  0  0  0
  -29.0720   -6.2600  -29.0730 C   0  0  0  0  0  0  0  0  0  0  0  0
  -27.9800   -9.6950  -30.7880 C   0  0  2  0  0  0  0  0  0  0  0  0
  -29.2610   -9.6290  -31.5960 C   0  0  0  0  0  0  0  0  0  0  0  0
  -29.4880  -10.8840  -32.1310 O   0  0  0  0  0  0  0  0  0  0  0  0
  -28.6660  -11.8040  -31.5350 C   0  0  0  0  0  0  0  0  0  0  0  0
  -28.0680  -11.1260  -30.3080 C   0  0  0  0  0  0  0  0  0  0  0  0
  -29.2870   -4.7630  -28.5750 C   0  0  0  0  0  0  0  0  0  0  0  0
  1  2  2  0
  1  6  1  0
  1  3  1  0
  2  4  1  0
  8  3  1  1
  4  5  2  0
  5  6  1  0
  6  7  1  0
  8  9  1  0
  8 12  1  0
  9 10  1  0
 10 11  1  0
 11 12  1  0
  7 13  1  0
M  END
>  <name>  (365) 
Car Nac Nd0 Car Nac Nac Cs3 C3r C3r O_a C3r C3r Cs3

>  <indices>  (365) 
[0, 1, 2]

>  <tasks>  (365) 
probe_placing close_aromatic_ring close_aromatic_ring close_aromatic_ring ring_built build_to_Nac build_to_Nd0 close_aliphatic_ring close_aliphatic_ring close_aliphatic_ring close_aliphatic_ring

>  <prot_clashes>  (365) 
12

>  <NBS phar>  (365) 
0.22000000000000003

>  <NBS_non-phar>  (365) 
0.4037010119511531

>  <NBS>  (365) 
0.6237010119511531

>  <source_stage>  (365) 
scored

>  <source_iter>  (365) 
10

>  <source_parent_mol>  (365) 
3

>  <source_scenario>  (365) 
1 2 3 1 0 7 4 0 0 3

>  <source_rank_in_scored_call>  (365) 
75

>  <source_current_task>  (365) 
no_task

>  <scenario>  (365) 
1 2 3 1 0 7 4 0 0

>  <protected_ring_attachments>  (365) 
3,1,0,2|1,0,2;4,5,0,2|5,0,2;9,8,7,2|8,7,2;10,11,7,2|11,7,2

>  <current_task>  (365) 
no_task

>  <rotatable_bond_torsions>  (365) 
1,0,2,7;0,2,7,8

$$$$

     RDKit          3D

 13 14  0  0  0  0  0  0  0  0999 V2000
  -27.8820   -7.3360  -31.0810 C   0  0  0  0  0  0  0  0  0  0  0  0
  -27.5560   -6.9640  -32.3530 N   0  0  0  0  0  0  0  0  0  0  0  0
  -27.4030   -8.6480  -30.5260 N   0  0  0  0  0  0  0  0  0  0  0  0
  -28.0730   -5.7450  -32.5850 C   0  0  0  0  0  0  0  0  0  0  0  0
  -28.7190   -5.3740  -31.4460 N   0  0  0  0  0  0  0  0  0  0  0  0
  -28.6020   -6.3340  -30.5430 N   0  0  0  0  0  0  0  0  0  0  0  0
  -28.8680   -6.4190  -29.0840 C   0  0  0  0  0  0  0  0  0  0  0  0
  -28.0200   -9.8430  -30.9540 C   0  0  2  0  0  0  0  0  0  0  0  0
  -29.3810   -9.7490  -31.6140 C   0  0  0  0  0  0  0  0  0  0  0  0
  -29.6830  -10.9930  -32.1380 O   0  0  0  0  0  0  0  0  0  0  0  0
  -28.8140  -11.9310  -31.6470 C   0  0  0  0  0  0  0  0  0  0  0  0
  -28.0750  -11.2790  -30.4850 C   0  0  0  0  0  0  0  0  0  0  0  0
  -27.6910   -5.8670  -28.3060 C   0  0  0  0  0  0  0  0  0  0  0  0
  1  2  2  0
  1  6  1  0
  1  3  1  0
  2  4  1  0
  8  3  1  1
  4  5  2  0
  5  6  1  0
  6  7  1  0
  8  9  1  0
  8 12  1  0
  9 10  1  0
 10 11  1  0
 11 12  1  0
  7 13  1  0
M  END
>  <name>  (366) 
Car Nac Nd0 Car Nac Nac Cs3 C3r C3r O_a C3r C3r Cs3

>  <indices>  (366) 
[0, 1, 2]

>  <tasks>  (366) 
probe_placing close_aromatic_ring close_aromatic_ring close_aromatic_ring ring_built build_to_Nac build_to_Nd0 close_aliphatic_ring close_aliphatic_ring close_aliphatic_ring close_aliphatic_ring

>  <prot_clashes>  (366) 
11

>  <NBS phar>  (366) 
0.2

>  <NBS_non-phar>  (366) 
0.40250081282395583

>  <NBS>  (366) 
0.6025008128239558

>  <source_stage>  (366) 
scored

>  <source_iter>  (366) 
10

>  <source_parent_mol>  (366) 
3

>  <source_scenario>  (366) 
1 2 3 1 0 7 4 0 0 3

>  <source_rank_in_scored_call>  (366) 
81

>  <source_current_task>  (366) 
no_task

>  <scenario>  (366) 
1 2 3 1 0 7 4 0 0

>  <protected_ring_attachments>  (366) 
3,1,0,2|1,0,2;4,5,0,2|5,0,2;9,8,7,2|8,7,2;10,11,7,2|11,7,2

>  <current_task>  (366) 
no_task

>  <rotatable_bond_torsions>  (366) 
1,0,2,7;0,2,7,8

$$$$

     RDKit          3D

 13 14  0  0  0  0  0  0  0  0999 V2000
  -27.7810   -7.2410  -30.8460 C   0  0  0  0  0  0  0  0  0  0  0  0
  -27.2830   -6.9660  -32.0850 N   0  0  0  0  0  0  0  0  0  0  0  0
  -27.4210   -8.5220  -30.1470 N   0  0  0  0  0  0  0  0  0  0  0  0
  -27.7260   -5.7550  -32.4630 C   0  0  0  0  0  0  0  0  0  0  0  0
  -28.5020   -5.2900  -31.4450 N   0  0  0  0  0  0  0  0  0  0  0  0
  -28.5330   -6.1880  -30.4740 N   0  0  0  0  0  0  0  0  0  0  0  0
  -28.9880   -6.1640  -29.0600 C   0  0  0  0  0  0  0  0  0  0  0  0
  -28.0150   -9.7290  -30.5720 C   0  0  2  0  0  0  0  0  0  0  0  0
  -29.2760   -9.6500  -31.4110 C   0  0  0  0  0  0  0  0  0  0  0  0
  -29.5470  -10.9200  -31.8860 O   0  0  0  0  0  0  0  0  0  0  0  0
  -28.7800  -11.8420  -31.2250 C   0  0  0  0  0  0  0  0  0  0  0  0
  -28.1760  -11.1270  -30.0210 C   0  0  0  0  0  0  0  0  0  0  0  0
  -29.3430   -4.7600  -28.5630 C   0  0  0  0  0  0  0  0  0  0  0  0
  1  2  2  0
  1  6  1  0
  1  3  1  0
  2  4  1  0
  8  3  1  1
  4  5  2  0
  5  6  1  0
  6  7  1  0
  8  9  1  0
  8 12  1  0
  9 10  1  0
 10 11  1  0
 11 12  1  0
  7 13  1  0
M  END
>  <name>  (367) 
Car Nac Nd0 Car Nac Nac Cs3 C3r C3r O_a C3r C3r Cs3

>  <indices>  (367) 
[0, 1, 2]

>  <tasks>  (367) 
probe_placing close_aromatic_ring close_aromatic_ring close_aromatic_ring ring_built build_to_Nac build_to_Nd0 close_aliphatic_ring close_aliphatic_ring close_aliphatic_ring close_aliphatic_ring

>  <prot_clashes>  (367) 
10

>  <NBS phar>  (367) 
0.22000000000000003

>  <NBS_non-phar>  (367) 
0.3403768539428711

>  <NBS>  (367) 
0.5603768539428711

>  <source_stage>  (367) 
scored

>  <source_iter>  (367) 
10

>  <source_parent_mol>  (367) 
3

>  <source_scenario>  (367) 
1 2 3 1 0 7 4 0 0 3

>  <source_rank_in_scored_call>  (367) 
93

>  <source_current_task>  (367) 
no_task

>  <scenario>  (367) 
1 2 3 1 0 7 4 0 0

>  <protected_ring_attachments>  (367) 
3,1,0,2|1,0,2;4,5,0,2|5,0,2;9,8,7,2|8,7,2;10,11,7,2|11,7,2

>  <current_task>  (367) 
no_task

>  <rotatable_bond_torsions>  (367) 
1,0,2,7;0,2,7,8

$$$$

     RDKit          3D

 13 14  0  0  0  0  0  0  0  0999 V2000
  -27.7820   -7.1830  -31.0120 C   0  0  0  0  0  0  0  0  0  0  0  0
  -27.5760   -6.8470  -32.3170 N   0  0  0  0  0  0  0  0  0  0  0  0
  -27.3320   -8.5180  -30.4880 N   0  0  0  0  0  0  0  0  0  0  0  0
  -28.0340   -5.5990  -32.5140 C   0  0  0  0  0  0  0  0  0  0  0  0
  -28.5240   -5.1730  -31.3170 N   0  0  0  0  0  0  0  0  0  0  0  0
  -28.3710   -6.1290  -30.4160 N   0  0  0  0  0  0  0  0  0  0  0  0
  -28.4790   -6.1800  -28.9360 C   0  0  0  0  0  0  0  0  0  0  0  0
  -28.0700   -9.6730  -30.8240 C   0  0  2  0  0  0  0  0  0  0  0  0
  -29.4870   -9.4950  -31.3330 C   0  0  0  0  0  0  0  0  0  0  0  0
  -29.9260  -10.7210  -31.7980 O   0  0  0  0  0  0  0  0  0  0  0  0
  -29.0720  -11.7110  -31.3880 C   0  0  0  0  0  0  0  0  0  0  0  0
  -28.1670  -11.0970  -30.3270 C   0  0  0  0  0  0  0  0  0  0  0  0
  -29.5560   -5.2550  -28.4100 C   0  0  0  0  0  0  0  0  0  0  0  0
  1  2  2  0
  1  3  1  0
  1  6  1  0
  2  4  1  0
  8  3  1  1
  4  5  2  0
  5  6  1  0
  6  7  1  0
  8  9  1  0
  8 12  1  0
  9 10  1  0
 10 11  1  0
 11 12  1  0
  7 13  1  0
M  END
>  <name>  (368) 
Car Nac Nd0 Car Nac Nac Cs3 C3r C3r O_a C3r C3r Cs3

>  <indices>  (368) 
[0, 1, 2]

>  <tasks>  (368) 
probe_placing close_aromatic_ring close_aromatic_ring close_aromatic_ring ring_built build_to_Nac build_to_Nd0 close_aliphatic_ring close_aliphatic_ring close_aliphatic_ring close_aliphatic_ring

>  <prot_clashes>  (368) 
9

>  <NBS phar>  (368) 
0.22000000000000003

>  <NBS_non-phar>  (368) 
0.32439429943378156

>  <NBS>  (368) 
0.5443942994337816

>  <source_stage>  (368) 
scored

>  <source_iter>  (368) 
10

>  <source_parent_mol>  (368) 
3

>  <source_scenario>  (368) 
1 2 3 1 0 7 4 0 0 3

>  <source_rank_in_scored_call>  (368) 
100

>  <source_current_task>  (368) 
no_task

>  <scenario>  (368) 
1 2 3 1 0 7 4 0 0

>  <protected_ring_attachments>  (368) 
3,1,0,2|1,0,2;4,5,0,2|5,0,2;9,8,7,2|8,7,2;10,11,7,2|11,7,2

>  <current_task>  (368) 
no_task

>  <rotatable_bond_torsions>  (368) 
1,0,2,7;0,2,7,8

$$$$

     RDKit          3D

 13 14  0  0  0  0  0  0  0  0999 V2000
  -27.6660   -8.1020  -30.3640 C   0  0  0  0  0  0  0  0  0  0  0  0
  -27.3760   -7.4600  -31.5320 N   0  0  0  0  0  0  0  0  0  0  0  0
  -27.2310   -9.5250  -30.1480 N   0  0  0  0  0  0  0  0  0  0  0  0
  -27.8400   -6.2020  -31.4530 C   0  0  0  0  0  0  0  0  0  0  0  0
  -28.4190   -6.0770  -30.2270 N   0  0  0  0  0  0  0  0  0  0  0  0
  -28.3120   -7.2230  -29.5750 N   0  0  0  0  0  0  0  0  0  0  0  0
  -28.5210   -7.6310  -28.1620 C   0  0  0  0  0  0  0  0  0  0  0  0
  -27.9240  -10.5630  -30.8050 C   0  0  2  0  0  0  0  0  0  0  0  0
  -29.3050  -10.2660  -31.3550 C   0  0  0  0  0  0  0  0  0  0  0  0
  -29.6910  -11.3440  -32.1320 O   0  0  0  0  0  0  0  0  0  0  0  0
  -28.8510  -12.4030  -31.9140 C   0  0  0  0  0  0  0  0  0  0  0  0
  -28.0320  -12.0650  -30.6740 C   0  0  0  0  0  0  0  0  0  0  0  0
  -27.7400   -5.1350  -32.5150 C   0  0  0  0  0  0  0  0  0  0  0  0
  1  2  2  0
  1  3  1  0
  1  6  1  0
  2  4  1  0
  8  3  1  1
  4 13  1  0
  4  5  2  0
  5  6  1  0
  6  7  1  0
  8  9  1  0
  8 12  1  0
  9 10  1  0
 10 11  1  0
 11 12  1  0
M  END
>  <name>  (369) 
Car Nac Nd0 Car Nac Nac Cs3 C3r C3r O_a C3r C3r Cs3

>  <indices>  (369) 
[0, 1, 2]

>  <tasks>  (369) 
probe_placing close_aromatic_ring close_aromatic_ring close_aromatic_ring ring_built build_to_Nac build_to_Nd0 close_aliphatic_ring close_aliphatic_ring close_aliphatic_ring close_aliphatic_ring

>  <prot_clashes>  (369) 
9

>  <NBS phar>  (369) 
0.1

>  <NBS_non-phar>  (369) 
0.35705973551823544

>  <NBS>  (369) 
0.4570597355182354

>  <source_stage>  (369) 
scored

>  <source_iter>  (369) 
10

>  <source_parent_mol>  (369) 
3

>  <source_scenario>  (369) 
1 2 3 1 0 7 4 0 0 3

>  <source_rank_in_scored_call>  (369) 
129

>  <source_current_task>  (369) 
no_task

>  <scenario>  (369) 
1 2 3 1 0 7 4 0 0

>  <protected_ring_attachments>  (369) 
3,1,0,2|1,0,2;4,5,0,2|5,0,2;9,8,7,2|8,7,2;10,11,7,2|11,7,2

>  <current_task>  (369) 
no_task

>  <rotatable_bond_torsions>  (369) 
1,0,2,7;0,2,7,8

$$$$

     RDKit          3D

 12 13  0  0  0  0  0  0  0  0999 V2000
  -27.7250   -7.3080  -31.0690 C   0  0  0  0  0  0  0  0  0  0  0  0
  -27.6500   -6.8370  -32.3470 N   0  0  0  0  0  0  0  0  0  0  0  0
  -27.1440   -8.6490  -30.7170 N   0  0  0  0  0  0  0  0  0  0  0  0
  -28.2070   -5.6140  -32.3830 C   0  0  0  0  0  0  0  0  0  0  0  0
  -28.6240   -5.3400  -31.1160 N   0  0  0  0  0  0  0  0  0  0  0  0
  -28.3320   -6.3610  -30.3300 N   0  0  0  0  0  0  0  0  0  0  0  0
  -28.3120   -6.5600  -28.8580 C   0  0  0  0  0  0  0  0  0  0  0  0
  -27.8870   -9.9970  -30.9590 C   0  0  2  0  0  0  0  0  0  0  0  0
  -29.1430   -9.6560  -31.7530 C   0  0  0  0  0  0  0  0  0  0  0  0
  -29.9180  -10.7680  -31.7520 O   0  0  0  0  0  0  0  0  0  0  0  0
  -29.4520  -11.6930  -30.8360 C   0  0  0  0  0  0  0  0  0  0  0  0
  -28.4410  -10.9810  -29.9600 C   0  0  0  0  0  0  0  0  0  0  0  0
  1  2  2  0
  1  3  1  0
  1  6  1  0
  2  4  1  0
  8  3  1  1
  4  5  2  0
  5  6  1  0
  6  7  1  0
  8  9  1  0
  8 12  1  0
  9 10  1  0
 10 11  1  0
 11 12  1  0
M  END
>  <name>  (370) 
Car Nac Nd0 Car Nac Nac Cs3 C3r C3r O_a C3r C3r

>  <indices>  (370) 
[0, 1, 2]

>  <tasks>  (370) 
probe_placing close_aromatic_ring close_aromatic_ring close_aromatic_ring ring_built build_to_Nac build_to_Nd0 close_aliphatic_ring close_aliphatic_ring close_aliphatic_ring

>  <prot_clashes>  (370) 
6

>  <NBS phar>  (370) 
0.22000000000000003

>  <NBS_non-phar>  (370) 
0.5884349346160889

>  <NBS>  (370) 
0.8084349346160888

>  <source_stage>  (370) 
scored

>  <source_iter>  (370) 
9

>  <source_parent_mol>  (370) 
3

>  <source_scenario>  (370) 
1 2 3 1 0 7 4 0 3

>  <source_rank_in_scored_call>  (370) 
0

>  <source_current_task>  (370) 
close_aliphatic_ring

>  <scenario>  (370) 
1 2 3 1 0 7 4 0

>  <protected_ring_attachments>  (370) 
3,1,0,2|1,0,2;4,5,0,2|5,0,2

>  <current_task>  (370) 
no_task

>  <rotatable_bond_torsions>  (370) 
1,0,2,7;0,2,7,8;2,7,8,9;7,8,9,10

$$$$

     RDKit          3D

 13 14  0  0  0  0  0  0  0  0999 V2000
  -27.5460   -7.2730  -31.2860 C   0  0  0  0  0  0  0  0  0  0  0  0
  -27.6390   -6.7950  -32.5600 N   0  0  0  0  0  0  0  0  0  0  0  0
  -26.9710   -8.6380  -31.0250 N   0  0  0  0  0  0  0  0  0  0  0  0
  -28.1490   -5.5520  -32.5110 C   0  0  0  0  0  0  0  0  0  0  0  0
  -28.3680   -5.2730  -31.1970 N   0  0  0  0  0  0  0  0  0  0  0  0
  -28.0040   -6.3110  -30.4640 N   0  0  0  0  0  0  0  0  0  0  0  0
  -27.7780   -6.5220  -29.0110 C   0  0  0  0  0  0  0  0  0  0  0  0
  -27.7910   -9.9550  -31.1600 C   0  0  2  0  0  0  0  0  0  0  0  0
  -29.1350   -9.5620  -31.7630 C   0  0  0  0  0  0  0  0  0  0  0  0
  -29.9430  -10.6450  -31.6530 O   0  0  0  0  0  0  0  0  0  0  0  0
  -29.3840  -11.5940  -30.8170 C   0  0  0  0  0  0  0  0  0  0  0  0
  -28.2310  -10.9260  -30.0940 C   0  0  0  0  0  0  0  0  0  0  0  0
  -29.1900   -6.5420  -28.3520 C   0  0  0  0  0  0  0  0  0  0  0  0
  1  2  2  0
  1  3  1  0
  1  6  1  0
  2  4  1  0
  8  3  1  1
  4  5  2  0
  5  6  1  0
  6  7  1  0
  8  9  1  0
  8 12  1  0
  9 10  1  0
 10 11  1  0
 11 12  1  0
  7 13  1  0
M  END
>  <name>  (371) 
Car Nac Nd0 Car Nac Nac Cs3 C3r C3r O_a C3r C3r Cs3

>  <indices>  (371) 
[0, 1, 2]

>  <tasks>  (371) 
probe_placing close_aromatic_ring close_aromatic_ring close_aromatic_ring ring_built build_to_Nac build_to_Nd0 close_aliphatic_ring close_aliphatic_ring close_aliphatic_ring close_aliphatic_ring

>  <prot_clashes>  (371) 
10

>  <NBS phar>  (371) 
0.32

>  <NBS_non-phar>  (371) 
0.5025528761056753

>  <NBS>  (371) 
0.8225528761056753

>  <source_stage>  (371) 
scored

>  <source_iter>  (371) 
10

>  <source_parent_mol>  (371) 
0

>  <source_scenario>  (371) 
1 2 3 1 0 7 4 0 3 0

>  <source_rank_in_scored_call>  (371) 
8

>  <source_current_task>  (371) 
no_task

>  <scenario>  (371) 
1 2 3 1 0 7 4 0 3

>  <protected_ring_attachments>  (371) 
3,1,0,2|1,0,2;4,5,0,2|5,0,2;9,8,7,2|8,7,2;10,11,7,2|11,7,2

>  <current_task>  (371) 
no_task

>  <rotatable_bond_torsions>  (371) 
1,0,2,7;0,2,7,8

$$$$

     RDKit          3D

 13 14  0  0  0  0  0  0  0  0999 V2000
  -27.7250   -7.3080  -31.0690 C   0  0  0  0  0  0  0  0  0  0  0  0
  -27.6500   -6.8370  -32.3470 N   0  0  0  0  0  0  0  0  0  0  0  0
  -27.1440   -8.6490  -30.7170 N   0  0  0  0  0  0  0  0  0  0  0  0
  -28.2070   -5.6140  -32.3830 C   0  0  0  0  0  0  0  0  0  0  0  0
  -28.6240   -5.3400  -31.1160 N   0  0  0  0  0  0  0  0  0  0  0  0
  -28.3320   -6.3610  -30.3300 N   0  0  0  0  0  0  0  0  0  0  0  0
  -28.3120   -6.5600  -28.8580 C   0  0  0  0  0  0  0  0  0  0  0  0
  -27.8870   -9.9970  -30.9590 C   0  0  2  0  0  0  0  0  0  0  0  0
  -29.1430   -9.6560  -31.7530 C   0  0  0  0  0  0  0  0  0  0  0  0
  -29.9180  -10.7680  -31.7520 O   0  0  0  0  0  0  0  0  0  0  0  0
  -29.4520  -11.6930  -30.8360 C   0  0  0  0  0  0  0  0  0  0  0  0
  -28.4410  -10.9810  -29.9600 C   0  0  0  0  0  0  0  0  0  0  0  0
  -27.9490   -7.8910  -28.3060 C   0  0  0  0  0  0  0  0  0  0  0  0
  1  2  2  0
  1  3  1  0
  1  6  1  0
  2  4  1  0
  8  3  1  1
  4  5  2  0
  5  6  1  0
  6  7  1  0
  8  9  1  0
  8 12  1  0
  9 10  1  0
 10 11  1  0
 11 12  1  0
  7 13  1  0
M  END
>  <name>  (372) 
Car Nac Nd0 Car Nac Nac Cs3 C3r C3r O_a C3r C3r Cs3

>  <indices>  (372) 
[0, 1, 2]

>  <tasks>  (372) 
probe_placing close_aromatic_ring close_aromatic_ring close_aromatic_ring ring_built build_to_Nac build_to_Nd0 close_aliphatic_ring close_aliphatic_ring close_aliphatic_ring close_aliphatic_ring

>  <prot_clashes>  (372) 
7

>  <NBS phar>  (372) 
0.22000000000000003

>  <NBS_non-phar>  (372) 
0.5896209203279935

>  <NBS>  (372) 
0.8096209203279936

>  <source_stage>  (372) 
scored

>  <source_iter>  (372) 
10

>  <source_parent_mol>  (372) 
0

>  <source_scenario>  (372) 
1 2 3 1 0 7 4 0 3 0

>  <source_rank_in_scored_call>  (372) 
11

>  <source_current_task>  (372) 
no_task

>  <scenario>  (372) 
1 2 3 1 0 7 4 0 3

>  <protected_ring_attachments>  (372) 
3,1,0,2|1,0,2;4,5,0,2|5,0,2;9,8,7,2|8,7,2;10,11,7,2|11,7,2

>  <current_task>  (372) 
no_task

>  <rotatable_bond_torsions>  (372) 
1,0,2,7;0,2,7,8

$$$$

     RDKit          3D

 13 14  0  0  0  0  0  0  0  0999 V2000
  -27.7310   -7.2980  -31.0760 C   0  0  0  0  0  0  0  0  0  0  0  0
  -27.6850   -6.8070  -32.3480 N   0  0  0  0  0  0  0  0  0  0  0  0
  -27.1440   -8.6460  -30.7590 N   0  0  0  0  0  0  0  0  0  0  0  0
  -28.2410   -5.5830  -32.3510 C   0  0  0  0  0  0  0  0  0  0  0  0
  -28.6270   -5.3280  -31.0700 N   0  0  0  0  0  0  0  0  0  0  0  0
  -28.3180   -6.3620  -30.3080 N   0  0  0  0  0  0  0  0  0  0  0  0
  -28.2630   -6.5840  -28.8400 C   0  0  0  0  0  0  0  0  0  0  0  0
  -27.8950   -9.9880  -31.0050 C   0  0  2  0  0  0  0  0  0  0  0  0
  -29.1690   -9.6330  -31.7630 C   0  0  0  0  0  0  0  0  0  0  0  0
  -29.9460  -10.7440  -31.7610 O   0  0  0  0  0  0  0  0  0  0  0  0
  -29.4600  -11.6840  -30.8710 C   0  0  0  0  0  0  0  0  0  0  0  0
  -28.4270  -10.9870  -30.0080 C   0  0  0  0  0  0  0  0  0  0  0  0
  -27.6870   -7.8960  -28.3010 C   0  0  0  0  0  0  0  0  0  0  0  0
  1  2  2  0
  1  3  1  0
  1  6  1  0
  2  4  1  0
  8  3  1  1
  4  5  2  0
  5  6  1  0
  6  7  1  0
  8  9  1  0
  8 12  1  0
  9 10  1  0
 10 11  1  0
 11 12  1  0
  7 13  1  0
M  END
>  <name>  (373) 
Car Nac Nd0 Car Nac Nac Cs3 C3r C3r O_a C3r C3r Cs3

>  <indices>  (373) 
[0, 1, 2]

>  <tasks>  (373) 
probe_placing close_aromatic_ring close_aromatic_ring close_aromatic_ring ring_built build_to_Nac build_to_Nd0 close_aliphatic_ring close_aliphatic_ring close_aliphatic_ring close_aliphatic_ring

>  <prot_clashes>  (373) 
8

>  <NBS phar>  (373) 
0.2

>  <NBS_non-phar>  (373) 
0.5851813829862155

>  <NBS>  (373) 
0.7851813829862155

>  <source_stage>  (373) 
scored

>  <source_iter>  (373) 
10

>  <source_parent_mol>  (373) 
0

>  <source_scenario>  (373) 
1 2 3 1 0 7 4 0 3 0

>  <source_rank_in_scored_call>  (373) 
20

>  <source_current_task>  (373) 
no_task

>  <scenario>  (373) 
1 2 3 1 0 7 4 0 3

>  <protected_ring_attachments>  (373) 
3,1,0,2|1,0,2;4,5,0,2|5,0,2;9,8,7,2|8,7,2;10,11,7,2|11,7,2

>  <current_task>  (373) 
no_task

>  <rotatable_bond_torsions>  (373) 
1,0,2,7;0,2,7,8

$$$$

     RDKit          3D

 13 14  0  0  0  0  0  0  0  0999 V2000
  -27.5550   -7.3420  -31.2600 C   0  0  0  0  0  0  0  0  0  0  0  0
  -27.6920   -6.8230  -32.5140 N   0  0  0  0  0  0  0  0  0  0  0  0
  -26.9620   -8.7100  -31.0640 N   0  0  0  0  0  0  0  0  0  0  0  0
  -28.2090   -5.5860  -32.4080 C   0  0  0  0  0  0  0  0  0  0  0  0
  -28.3880   -5.3530  -31.0780 N   0  0  0  0  0  0  0  0  0  0  0  0
  -27.9930   -6.4110  -30.3920 N   0  0  0  0  0  0  0  0  0  0  0  0
  -27.7200   -6.6690  -28.9550 C   0  0  0  0  0  0  0  0  0  0  0  0
  -27.7770  -10.0290  -31.2170 C   0  0  2  0  0  0  0  0  0  0  0  0
  -29.1420   -9.6270  -31.7630 C   0  0  0  0  0  0  0  0  0  0  0  0
  -29.9380  -10.7190  -31.6640 O   0  0  0  0  0  0  0  0  0  0  0  0
  -29.3470  -11.6910  -30.8780 C   0  0  0  0  0  0  0  0  0  0  0  0
  -28.1760  -11.0380  -30.1710 C   0  0  0  0  0  0  0  0  0  0  0  0
  -29.0180   -7.1510  -28.2910 C   0  0  0  0  0  0  0  0  0  0  0  0
  1  2  2  0
  1  3  1  0
  1  6  1  0
  2  4  1  0
  8  3  1  1
  4  5  2  0
  5  6  1  0
  6  7  1  0
  8  9  1  0
  8 12  1  0
  9 10  1  0
 10 11  1  0
 11 12  1  0
  7 13  1  0
M  END
>  <name>  (374) 
Car Nac Nd0 Car Nac Nac Cs3 C3r C3r O_a C3r C3r Cs3

>  <indices>  (374) 
[0, 1, 2]

>  <tasks>  (374) 
probe_placing close_aromatic_ring close_aromatic_ring close_aromatic_ring ring_built build_to_Nac build_to_Nd0 close_aliphatic_ring close_aliphatic_ring close_aliphatic_ring close_aliphatic_ring

>  <prot_clashes>  (374) 
8

>  <NBS phar>  (374) 
0.22000000000000003

>  <NBS_non-phar>  (374) 
0.5493906094477727

>  <NBS>  (374) 
0.7693906094477727

>  <source_stage>  (374) 
scored

>  <source_iter>  (374) 
10

>  <source_parent_mol>  (374) 
0

>  <source_scenario>  (374) 
1 2 3 1 0 7 4 0 3 0

>  <source_rank_in_scored_call>  (374) 
28

>  <source_current_task>  (374) 
no_task

>  <scenario>  (374) 
1 2 3 1 0 7 4 0 3

>  <protected_ring_attachments>  (374) 
3,1,0,2|1,0,2;4,5,0,2|5,0,2;9,8,7,2|8,7,2;10,11,7,2|11,7,2

>  <current_task>  (374) 
no_task

>  <rotatable_bond_torsions>  (374) 
1,0,2,7;0,2,7,8

$$$$

     RDKit          3D

 13 14  0  0  0  0  0  0  0  0999 V2000
  -27.5460   -7.3400  -31.2610 C   0  0  0  0  0  0  0  0  0  0  0  0
  -27.6880   -6.8170  -32.5130 N   0  0  0  0  0  0  0  0  0  0  0  0
  -26.9530   -8.7090  -31.0710 N   0  0  0  0  0  0  0  0  0  0  0  0
  -28.2040   -5.5810  -32.4010 C   0  0  0  0  0  0  0  0  0  0  0  0
  -28.3770   -5.3510  -31.0700 N   0  0  0  0  0  0  0  0  0  0  0  0
  -27.9790   -6.4110  -30.3890 N   0  0  0  0  0  0  0  0  0  0  0  0
  -27.7000   -6.6740  -28.9540 C   0  0  0  0  0  0  0  0  0  0  0  0
  -27.7690  -10.0270  -31.2250 C   0  0  2  0  0  0  0  0  0  0  0  0
  -29.1360   -9.6220  -31.7640 C   0  0  0  0  0  0  0  0  0  0  0  0
  -29.9330  -10.7150  -31.6640 O   0  0  0  0  0  0  0  0  0  0  0  0
  -29.3380  -11.6890  -30.8840 C   0  0  0  0  0  0  0  0  0  0  0  0
  -28.1640  -11.0390  -30.1800 C   0  0  0  0  0  0  0  0  0  0  0  0
  -28.8830   -7.4460  -28.4230 C   0  0  0  0  0  0  0  0  0  0  0  0
  1  2  2  0
  1  3  1  0
  1  6  1  0
  2  4  1  0
  8  3  1  1
  4  5  2  0
  5  6  1  0
  6  7  1  0
  8  9  1  0
  8 12  1  0
  9 10  1  0
 10 11  1  0
 11 12  1  0
  7 13  1  0
M  END
>  <name>  (375) 
Car Nac Nd0 Car Nac Nac Cs3 C3r C3r O_a C3r C3r Cs3

>  <indices>  (375) 
[0, 1, 2]

>  <tasks>  (375) 
probe_placing close_aromatic_ring close_aromatic_ring close_aromatic_ring ring_built build_to_Nac build_to_Nd0 close_aliphatic_ring close_aliphatic_ring close_aliphatic_ring close_aliphatic_ring

>  <prot_clashes>  (375) 
8

>  <NBS phar>  (375) 
0.22000000000000003

>  <NBS_non-phar>  (375) 
0.5345110526451697

>  <NBS>  (375) 
0.7545110526451697

>  <source_stage>  (375) 
scored

>  <source_iter>  (375) 
10

>  <source_parent_mol>  (375) 
0

>  <source_scenario>  (375) 
1 2 3 1 0 7 4 0 3 0

>  <source_rank_in_scored_call>  (375) 
36

>  <source_current_task>  (375) 
no_task

>  <scenario>  (375) 
1 2 3 1 0 7 4 0 3

>  <protected_ring_attachments>  (375) 
3,1,0,2|1,0,2;4,5,0,2|5,0,2;9,8,7,2|8,7,2;10,11,7,2|11,7,2

>  <current_task>  (375) 
no_task

>  <rotatable_bond_torsions>  (375) 
1,0,2,7;0,2,7,8

$$$$

     RDKit          3D

 13 14  0  0  0  0  0  0  0  0999 V2000
  -27.5800   -7.3340  -31.2500 C   0  0  0  0  0  0  0  0  0  0  0  0
  -27.6880   -6.8310  -32.5130 N   0  0  0  0  0  0  0  0  0  0  0  0
  -26.9870   -8.6960  -31.0220 N   0  0  0  0  0  0  0  0  0  0  0  0
  -28.2130   -5.5950  -32.4350 C   0  0  0  0  0  0  0  0  0  0  0  0
  -28.4250   -5.3470  -31.1130 N   0  0  0  0  0  0  0  0  0  0  0  0
  -28.0430   -6.3940  -30.4050 N   0  0  0  0  0  0  0  0  0  0  0  0
  -27.8050   -6.6330  -28.9580 C   0  0  0  0  0  0  0  0  0  0  0  0
  -27.7920  -10.0210  -31.1790 C   0  0  2  0  0  0  0  0  0  0  0  0
  -29.1450   -9.6320  -31.7640 C   0  0  0  0  0  0  0  0  0  0  0  0
  -29.9390  -10.7260  -31.6700 O   0  0  0  0  0  0  0  0  0  0  0  0
  -29.3620  -11.6850  -30.8580 C   0  0  0  0  0  0  0  0  0  0  0  0
  -28.2120  -11.0190  -30.1300 C   0  0  0  0  0  0  0  0  0  0  0  0
  -29.1070   -7.0500  -28.3270 C   0  0  0  0  0  0  0  0  0  0  0  0
  1  2  2  0
  1  3  1  0
  1  6  1  0
  2  4  1  0
  8  3  1  1
  4  5  2  0
  5  6  1  0
  6  7  1  0
  8  9  1  0
  8 12  1  0
  9 10  1  0
 10 11  1  0
 11 12  1  0
  7 13  1  0
M  END
>  <name>  (376) 
Car Nac Nd0 Car Nac Nac Cs3 C3r C3r O_a C3r C3r Cs3

>  <indices>  (376) 
[0, 1, 2]

>  <tasks>  (376) 
probe_placing close_aromatic_ring close_aromatic_ring close_aromatic_ring ring_built build_to_Nac build_to_Nd0 close_aliphatic_ring close_aliphatic_ring close_aliphatic_ring close_aliphatic_ring

>  <prot_clashes>  (376) 
9

>  <NBS phar>  (376) 
0.22000000000000003

>  <NBS_non-phar>  (376) 
0.5237309015714205

>  <NBS>  (376) 
0.7437309015714206

>  <source_stage>  (376) 
scored

>  <source_iter>  (376) 
10

>  <source_parent_mol>  (376) 
0

>  <source_scenario>  (376) 
1 2 3 1 0 7 4 0 3 0

>  <source_rank_in_scored_call>  (376) 
43

>  <source_current_task>  (376) 
no_task

>  <scenario>  (376) 
1 2 3 1 0 7 4 0 3

>  <protected_ring_attachments>  (376) 
3,1,0,2|1,0,2;4,5,0,2|5,0,2;9,8,7,2|8,7,2;10,11,7,2|11,7,2

>  <current_task>  (376) 
no_task

>  <rotatable_bond_torsions>  (376) 
1,0,2,7;0,2,7,8

$$$$

     RDKit          3D

 13 14  0  0  0  0  0  0  0  0999 V2000
  -27.8480   -7.3630  -31.0350 C   0  0  0  0  0  0  0  0  0  0  0  0
  -27.7420   -6.8900  -32.3100 N   0  0  0  0  0  0  0  0  0  0  0  0
  -27.2440   -8.6880  -30.6620 N   0  0  0  0  0  0  0  0  0  0  0  0
  -28.3290   -5.6820  -32.3660 C   0  0  0  0  0  0  0  0  0  0  0  0
  -28.7970   -5.4190  -31.1150 N   0  0  0  0  0  0  0  0  0  0  0  0
  -28.5050   -6.4320  -30.3180 N   0  0  0  0  0  0  0  0  0  0  0  0
  -28.5300   -6.6310  -28.8460 C   0  0  0  0  0  0  0  0  0  0  0  0
  -27.9430  -10.0550  -30.9280 C   0  0  2  0  0  0  0  0  0  0  0  0
  -29.1790   -9.7480  -31.7650 C   0  0  0  0  0  0  0  0  0  0  0  0
  -29.9240  -10.8800  -31.7890 O   0  0  0  0  0  0  0  0  0  0  0  0
  -29.4660  -11.7920  -30.8570 C   0  0  0  0  0  0  0  0  0  0  0  0
  -28.5040  -11.0540  -29.9470 C   0  0  0  0  0  0  0  0  0  0  0  0
  -27.3170   -7.3250  -28.3110 C   0  0  0  0  0  0  0  0  0  0  0  0
  1  2  2  0
  1  3  1  0
  1  6  1  0
  2  4  1  0
  8  3  1  1
  4  5  2  0
  5  6  1  0
  6  7  1  0
  8  9  1  0
  8 12  1  0
  9 10  1  0
 10 11  1  0
 11 12  1  0
  7 13  1  0
M  END
>  <name>  (377) 
Car Nac Nd0 Car Nac Nac Cs3 C3r C3r O_a C3r C3r Cs3

>  <indices>  (377) 
[0, 1, 2]

>  <tasks>  (377) 
probe_placing close_aromatic_ring close_aromatic_ring close_aromatic_ring ring_built build_to_Nac build_to_Nd0 close_aliphatic_ring close_aliphatic_ring close_aliphatic_ring close_aliphatic_ring

>  <prot_clashes>  (377) 
12

>  <NBS phar>  (377) 
0.22000000000000003

>  <NBS_non-phar>  (377) 
0.4946435048029973

>  <NBS>  (377) 
0.7146435048029973

>  <source_stage>  (377) 
scored

>  <source_iter>  (377) 
10

>  <source_parent_mol>  (377) 
0

>  <source_scenario>  (377) 
1 2 3 1 0 7 4 0 3 0

>  <source_rank_in_scored_call>  (377) 
56

>  <source_current_task>  (377) 
no_task

>  <scenario>  (377) 
1 2 3 1 0 7 4 0 3

>  <protected_ring_attachments>  (377) 
3,1,0,2|1,0,2;4,5,0,2|5,0,2;9,8,7,2|8,7,2;10,11,7,2|11,7,2

>  <current_task>  (377) 
no_task

>  <rotatable_bond_torsions>  (377) 
1,0,2,7;0,2,7,8

$$$$

     RDKit          3D

 13 14  0  0  0  0  0  0  0  0999 V2000
  -27.9120   -7.3680  -31.1690 C   0  0  0  0  0  0  0  0  0  0  0  0
  -27.7110   -7.0210  -32.4730 N   0  0  0  0  0  0  0  0  0  0  0  0
  -27.3390   -8.6470  -30.6260 N   0  0  0  0  0  0  0  0  0  0  0  0
  -28.2910   -5.8270  -32.6900 C   0  0  0  0  0  0  0  0  0  0  0  0
  -28.8490   -5.4470  -31.5070 N   0  0  0  0  0  0  0  0  0  0  0  0
  -28.6180   -6.3750  -30.5970 N   0  0  0  0  0  0  0  0  0  0  0  0
  -28.7520   -6.4300  -29.1180 C   0  0  0  0  0  0  0  0  0  0  0  0
  -28.0180  -10.0370  -30.8080 C   0  0  2  0  0  0  0  0  0  0  0  0
  -29.1890   -9.8200  -31.7590 C   0  0  0  0  0  0  0  0  0  0  0  0
  -29.9320  -10.9530  -31.7280 O   0  0  0  0  0  0  0  0  0  0  0  0
  -29.5440  -11.7680  -30.6800 C   0  0  0  0  0  0  0  0  0  0  0  0
  -28.6520  -10.9390  -29.7790 C   0  0  0  0  0  0  0  0  0  0  0  0
  -27.6870   -5.7300  -28.2290 C   0  0  0  0  0  0  0  0  0  0  0  0
  1  2  2  0
  1  3  1  0
  1  6  1  0
  2  4  1  0
  8  3  1  1
  4  5  2  0
  5  6  1  0
  6  7  1  0
  8  9  1  0
  8 12  1  0
  9 10  1  0
 10 11  1  0
 11 12  1  0
  7 13  1  0
M  END
>  <name>  (378) 
Car Nac Nd0 Car Nac Nac Cs3 C3r C3r O_a C3r C3r Cs3

>  <indices>  (378) 
[0, 1, 2]

>  <tasks>  (378) 
probe_placing close_aromatic_ring close_aromatic_ring close_aromatic_ring ring_built build_to_Nac build_to_Nd0 close_aliphatic_ring close_aliphatic_ring close_aliphatic_ring close_aliphatic_ring

>  <prot_clashes>  (378) 
11

>  <NBS phar>  (378) 
0.2

>  <NBS_non-phar>  (378) 
0.4573771036588229

>  <NBS>  (378) 
0.657377103658823

>  <source_stage>  (378) 
scored

>  <source_iter>  (378) 
10

>  <source_parent_mol>  (378) 
0

>  <source_scenario>  (378) 
1 2 3 1 0 7 4 0 3 0

>  <source_rank_in_scored_call>  (378) 
84

>  <source_current_task>  (378) 
no_task

>  <scenario>  (378) 
1 2 3 1 0 7 4 0 3

>  <protected_ring_attachments>  (378) 
3,1,0,2|1,0,2;4,5,0,2|5,0,2;9,8,7,2|8,7,2;10,11,7,2|11,7,2

>  <current_task>  (378) 
no_task

>  <rotatable_bond_torsions>  (378) 
1,0,2,7;0,2,7,8

$$$$

     RDKit          3D

 13 14  0  0  0  0  0  0  0  0999 V2000
  -27.8680   -7.2460  -31.2030 C   0  0  0  0  0  0  0  0  0  0  0  0
  -27.6880   -6.9070  -32.5120 N   0  0  0  0  0  0  0  0  0  0  0  0
  -27.2980   -8.5290  -30.6650 N   0  0  0  0  0  0  0  0  0  0  0  0
  -28.2600   -5.7080  -32.7220 C   0  0  0  0  0  0  0  0  0  0  0  0
  -28.7910   -5.3170  -31.5310 N   0  0  0  0  0  0  0  0  0  0  0  0
  -28.5520   -6.2440  -30.6210 N   0  0  0  0  0  0  0  0  0  0  0  0
  -28.6580   -6.2910  -29.1400 C   0  0  0  0  0  0  0  0  0  0  0  0
  -27.9950   -9.9130  -30.8280 C   0  0  2  0  0  0  0  0  0  0  0  0
  -29.1820   -9.6870  -31.7580 C   0  0  0  0  0  0  0  0  0  0  0  0
  -29.9360  -10.8120  -31.7070 O   0  0  0  0  0  0  0  0  0  0  0  0
  -29.5370  -11.6270  -30.6630 C   0  0  0  0  0  0  0  0  0  0  0  0
  -28.6180  -10.8030  -29.7830 C   0  0  0  0  0  0  0  0  0  0  0  0
  -28.0820   -5.0270  -28.3950 C   0  0  0  0  0  0  0  0  0  0  0  0
  1  2  2  0
  1  3  1  0
  1  6  1  0
  2  4  1  0
  8  3  1  1
  4  5  2  0
  5  6  1  0
  6  7  1  0
  8  9  1  0
  8 12  1  0
  9 10  1  0
 10 11  1  0
 11 12  1  0
  7 13  1  0
M  END
>  <name>  (379) 
Car Nac Nd0 Car Nac Nac Cs3 C3r C3r O_a C3r C3r Cs3

>  <indices>  (379) 
[0, 1, 2]

>  <tasks>  (379) 
probe_placing close_aromatic_ring close_aromatic_ring close_aromatic_ring ring_built build_to_Nac build_to_Nd0 close_aliphatic_ring close_aliphatic_ring close_aliphatic_ring close_aliphatic_ring

>  <prot_clashes>  (379) 
9

>  <NBS phar>  (379) 
0.2

>  <NBS_non-phar>  (379) 
0.4544673332801232

>  <NBS>  (379) 
0.6544673332801232

>  <source_stage>  (379) 
scored

>  <source_iter>  (379) 
10

>  <source_parent_mol>  (379) 
0

>  <source_scenario>  (379) 
1 2 3 1 0 7 4 0 3 0

>  <source_rank_in_scored_call>  (379) 
85

>  <source_current_task>  (379) 
no_task

>  <scenario>  (379) 
1 2 3 1 0 7 4 0 3

>  <protected_ring_attachments>  (379) 
3,1,0,2|1,0,2;4,5,0,2|5,0,2;9,8,7,2|8,7,2;10,11,7,2|11,7,2

>  <current_task>  (379) 
no_task

>  <rotatable_bond_torsions>  (379) 
1,0,2,7;0,2,7,8

$$$$

     RDKit          3D

 13 14  0  0  0  0  0  0  0  0999 V2000
  -27.8730   -7.1650  -30.9320 C   0  0  0  0  0  0  0  0  0  0  0  0
  -27.4760   -6.8240  -32.1910 N   0  0  0  0  0  0  0  0  0  0  0  0
  -27.4010   -8.4480  -30.3070 N   0  0  0  0  0  0  0  0  0  0  0  0
  -28.0050   -5.6260  -32.4940 C   0  0  0  0  0  0  0  0  0  0  0  0
  -28.7280   -5.2350  -31.4090 N   0  0  0  0  0  0  0  0  0  0  0  0
  -28.6460   -6.1640  -30.4720 N   0  0  0  0  0  0  0  0  0  0  0  0
  -29.0000   -6.2120  -29.0300 C   0  0  0  0  0  0  0  0  0  0  0  0
  -28.0600   -9.8320  -30.5860 C   0  0  2  0  0  0  0  0  0  0  0  0
  -29.0740   -9.6050  -31.7020 C   0  0  0  0  0  0  0  0  0  0  0  0
  -29.8250  -10.7310  -31.7800 O   0  0  0  0  0  0  0  0  0  0  0  0
  -29.6070  -11.5460  -30.6850 C   0  0  0  0  0  0  0  0  0  0  0  0
  -28.8500  -10.7240  -29.6620 C   0  0  0  0  0  0  0  0  0  0  0  0
  -29.2030   -4.7080  -28.5490 C   0  0  0  0  0  0  0  0  0  0  0  0
  1  2  2  0
  1  6  1  0
  1  3  1  0
  2  4  1  0
  8  3  1  1
  4  5  2  0
  5  6  1  0
  6  7  1  0
  8  9  1  0
  8 12  1  0
  9 10  1  0
 10 11  1  0
 11 12  1  0
  7 13  1  0
M  END
>  <name>  (380) 
Car Nac Nd0 Car Nac Nac Cs3 C3r C3r O_a C3r C3r Cs3

>  <indices>  (380) 
[0, 1, 2]

>  <tasks>  (380) 
probe_placing close_aromatic_ring close_aromatic_ring close_aromatic_ring ring_built build_to_Nac build_to_Nd0 close_aliphatic_ring close_aliphatic_ring close_aliphatic_ring close_aliphatic_ring

>  <prot_clashes>  (380) 
8

>  <NBS phar>  (380) 
0.22000000000000003

>  <NBS_non-phar>  (380) 
0.4241893474872296

>  <NBS>  (380) 
0.6441893474872296

>  <source_stage>  (380) 
scored

>  <source_iter>  (380) 
10

>  <source_parent_mol>  (380) 
0

>  <source_scenario>  (380) 
1 2 3 1 0 7 4 0 3 0

>  <source_rank_in_scored_call>  (380) 
93

>  <source_current_task>  (380) 
no_task

>  <scenario>  (380) 
1 2 3 1 0 7 4 0 3

>  <protected_ring_attachments>  (380) 
3,1,0,2|1,0,2;4,5,0,2|5,0,2;9,8,7,2|8,7,2;10,11,7,2|11,7,2

>  <current_task>  (380) 
no_task

>  <rotatable_bond_torsions>  (380) 
1,0,2,7;0,2,7,8

$$$$

     RDKit          3D

 13 14  0  0  0  0  0  0  0  0999 V2000
  -27.5970   -6.9820  -31.0140 C   0  0  0  0  0  0  0  0  0  0  0  0
  -27.3000   -6.6140  -32.2940 N   0  0  0  0  0  0  0  0  0  0  0  0
  -27.1420   -8.3110  -30.4790 N   0  0  0  0  0  0  0  0  0  0  0  0
  -27.7870   -5.3790  -32.5050 C   0  0  0  0  0  0  0  0  0  0  0  0
  -28.3850   -4.9930  -31.3440 N   0  0  0  0  0  0  0  0  0  0  0  0
  -28.2680   -5.9600  -30.4510 N   0  0  0  0  0  0  0  0  0  0  0  0
  -28.4890   -6.0450  -28.9840 C   0  0  0  0  0  0  0  0  0  0  0  0
  -27.9000   -9.6470  -30.7410 C   0  0  2  0  0  0  0  0  0  0  0  0
  -28.9980   -9.3250  -31.7480 C   0  0  0  0  0  0  0  0  0  0  0  0
  -29.8150  -10.4060  -31.7920 O   0  0  0  0  0  0  0  0  0  0  0  0
  -29.5430  -11.2730  -30.7500 C   0  0  0  0  0  0  0  0  0  0  0  0
  -28.6500  -10.5310  -29.7760 C   0  0  0  0  0  0  0  0  0  0  0  0
  -29.6360   -5.1670  -28.5300 C   0  0  0  0  0  0  0  0  0  0  0  0
  1  2  2  0
  1  3  1  0
  1  6  1  0
  2  4  1  0
  8  3  1  1
  4  5  2  0
  5  6  1  0
  6  7  1  0
  8  9  1  0
  8 12  1  0
  9 10  1  0
 10 11  1  0
 11 12  1  0
  7 13  1  0
M  END
>  <name>  (381) 
Car Nac Nd0 Car Nac Nac Cs3 C3r C3r O_a C3r C3r Cs3

>  <indices>  (381) 
[0, 1, 2]

>  <tasks>  (381) 
probe_placing close_aromatic_ring close_aromatic_ring close_aromatic_ring ring_built build_to_Nac build_to_Nd0 close_aliphatic_ring close_aliphatic_ring close_aliphatic_ring close_aliphatic_ring

>  <prot_clashes>  (381) 
8

>  <NBS phar>  (381) 
0.22000000000000003

>  <NBS_non-phar>  (381) 
0.40623613504263073

>  <NBS>  (381) 
0.6262361350426308

>  <source_stage>  (381) 
scored

>  <source_iter>  (381) 
10

>  <source_parent_mol>  (381) 
0

>  <source_scenario>  (381) 
1 2 3 1 0 7 4 0 3 0

>  <source_rank_in_scored_call>  (381) 
99

>  <source_current_task>  (381) 
no_task

>  <scenario>  (381) 
1 2 3 1 0 7 4 0 3

>  <protected_ring_attachments>  (381) 
3,1,0,2|1,0,2;4,5,0,2|5,0,2;9,8,7,2|8,7,2;10,11,7,2|11,7,2

>  <current_task>  (381) 
no_task

>  <rotatable_bond_torsions>  (381) 
1,0,2,7;0,2,7,8

$$$$

     RDKit          3D

 13 14  0  0  0  0  0  0  0  0999 V2000
  -27.9210   -7.3310  -31.1100 C   0  0  0  0  0  0  0  0  0  0  0  0
  -27.6430   -6.9910  -32.4010 N   0  0  0  0  0  0  0  0  0  0  0  0
  -27.3870   -8.6100  -30.5280 N   0  0  0  0  0  0  0  0  0  0  0  0
  -28.2030   -5.7960  -32.6570 C   0  0  0  0  0  0  0  0  0  0  0  0
  -28.8270   -5.4070  -31.5100 N   0  0  0  0  0  0  0  0  0  0  0  0
  -28.6540   -6.3330  -30.5840 N   0  0  0  0  0  0  0  0  0  0  0  0
  -28.8740   -6.3790  -29.1150 C   0  0  0  0  0  0  0  0  0  0  0  0
  -28.0610   -9.9980  -30.7430 C   0  0  2  0  0  0  0  0  0  0  0  0
  -29.1740   -9.7800  -31.7610 C   0  0  0  0  0  0  0  0  0  0  0  0
  -29.9230  -10.9090  -31.7680 O   0  0  0  0  0  0  0  0  0  0  0  0
  -29.6010  -11.7210  -30.6960 C   0  0  0  0  0  0  0  0  0  0  0  0
  -28.7580  -10.8920  -29.7480 C   0  0  0  0  0  0  0  0  0  0  0  0
  -27.6920   -5.7690  -28.3890 C   0  0  0  0  0  0  0  0  0  0  0  0
  1  2  2  0
  1  6  1  0
  1  3  1  0
  2  4  1  0
  8  3  1  1
  4  5  2  0
  5  6  1  0
  6  7  1  0
  8  9  1  0
  8 12  1  0
  9 10  1  0
 10 11  1  0
 11 12  1  0
  7 13  1  0
M  END
>  <name>  (382) 
Car Nac Nd0 Car Nac Nac Cs3 C3r C3r O_a C3r C3r Cs3

>  <indices>  (382) 
[0, 1, 2]

>  <tasks>  (382) 
probe_placing close_aromatic_ring close_aromatic_ring close_aromatic_ring ring_built build_to_Nac build_to_Nd0 close_aliphatic_ring close_aliphatic_ring close_aliphatic_ring close_aliphatic_ring

>  <prot_clashes>  (382) 
8

>  <NBS phar>  (382) 
0.2

>  <NBS_non-phar>  (382) 
0.41995330957266

>  <NBS>  (382) 
0.61995330957266

>  <source_stage>  (382) 
scored

>  <source_iter>  (382) 
10

>  <source_parent_mol>  (382) 
0

>  <source_scenario>  (382) 
1 2 3 1 0 7 4 0 3 0

>  <source_rank_in_scored_call>  (382) 
105

>  <source_current_task>  (382) 
no_task

>  <scenario>  (382) 
1 2 3 1 0 7 4 0 3

>  <protected_ring_attachments>  (382) 
3,1,0,2|1,0,2;4,5,0,2|5,0,2;9,8,7,2|8,7,2;10,11,7,2|11,7,2

>  <current_task>  (382) 
no_task

>  <rotatable_bond_torsions>  (382) 
1,0,2,7;0,2,7,8

$$$$

     RDKit          3D

 13 14  0  0  0  0  0  0  0  0999 V2000
  -27.8970   -7.0780  -30.9590 C   0  0  0  0  0  0  0  0  0  0  0  0
  -27.3930   -6.7950  -32.1950 N   0  0  0  0  0  0  0  0  0  0  0  0
  -27.4590   -8.3130  -30.2230 N   0  0  0  0  0  0  0  0  0  0  0  0
  -27.9160   -5.6280  -32.6110 C   0  0  0  0  0  0  0  0  0  0  0  0
  -28.7440   -5.1990  -31.6190 N   0  0  0  0  0  0  0  0  0  0  0  0
  -28.7300   -6.0730  -30.6290 N   0  0  0  0  0  0  0  0  0  0  0  0
  -29.2140   -6.0530  -29.2250 C   0  0  0  0  0  0  0  0  0  0  0  0
  -28.0610   -9.7260  -30.4840 C   0  0  2  0  0  0  0  0  0  0  0  0
  -28.9720   -9.5860  -31.6980 C   0  0  0  0  0  0  0  0  0  0  0  0
  -29.6890  -10.7330  -31.7820 O   0  0  0  0  0  0  0  0  0  0  0  0
  -29.5570  -11.4820  -30.6270 C   0  0  0  0  0  0  0  0  0  0  0  0
  -28.9150  -10.5870  -29.5870 C   0  0  0  0  0  0  0  0  0  0  0  0
  -29.2150   -4.5990  -28.4900 C   0  0  0  0  0  0  0  0  0  0  0  0
  1  2  2  0
  1  6  1  0
  1  3  1  0
  2  4  1  0
  8  3  1  1
  4  5  2  0
  5  6  1  0
  6  7  1  0
  8  9  1  0
  8 12  1  0
  9 10  1  0
 10 11  1  0
 11 12  1  0
  7 13  1  0
M  END
>  <name>  (383) 
Car Nac Nd0 Car Nac Nac Cs3 C3r C3r O_a C3r C3r Cs3

>  <indices>  (383) 
[0, 1, 2]

>  <tasks>  (383) 
probe_placing close_aromatic_ring close_aromatic_ring close_aromatic_ring ring_built build_to_Nac build_to_Nd0 close_aliphatic_ring close_aliphatic_ring close_aliphatic_ring close_aliphatic_ring

>  <prot_clashes>  (383) 
9

>  <NBS phar>  (383) 
0.22000000000000003

>  <NBS_non-phar>  (383) 
0.39001971024733323

>  <NBS>  (383) 
0.6100197102473333

>  <source_stage>  (383) 
scored

>  <source_iter>  (383) 
10

>  <source_parent_mol>  (383) 
0

>  <source_scenario>  (383) 
1 2 3 1 0 7 4 0 3 0

>  <source_rank_in_scored_call>  (383) 
107

>  <source_current_task>  (383) 
no_task

>  <scenario>  (383) 
1 2 3 1 0 7 4 0 3

>  <protected_ring_attachments>  (383) 
3,1,0,2|1,0,2;4,5,0,2|5,0,2;9,8,7,2|8,7,2;10,11,7,2|11,7,2

>  <current_task>  (383) 
no_task

>  <rotatable_bond_torsions>  (383) 
1,0,2,7;0,2,7,8

$$$$

     RDKit          3D

 13 14  0  0  0  0  0  0  0  0999 V2000
  -27.7570   -7.0630  -30.8930 C   0  0  0  0  0  0  0  0  0  0  0  0
  -27.2880   -6.7600  -32.1380 N   0  0  0  0  0  0  0  0  0  0  0  0
  -27.3520   -8.3450  -30.2190 N   0  0  0  0  0  0  0  0  0  0  0  0
  -27.7680   -5.5540  -32.4900 C   0  0  0  0  0  0  0  0  0  0  0  0
  -28.5350   -5.1230  -31.4510 N   0  0  0  0  0  0  0  0  0  0  0  0
  -28.5250   -6.0330  -30.4940 N   0  0  0  0  0  0  0  0  0  0  0  0
  -28.9520   -6.0410  -29.0710 C   0  0  0  0  0  0  0  0  0  0  0  0
  -28.0340   -9.7170  -30.5040 C   0  0  2  0  0  0  0  0  0  0  0  0
  -28.9830   -9.4870  -31.6740 C   0  0  0  0  0  0  0  0  0  0  0  0
  -29.7600  -10.5940  -31.7680 O   0  0  0  0  0  0  0  0  0  0  0  0
  -29.6200  -11.3920  -30.6470 C   0  0  0  0  0  0  0  0  0  0  0  0
  -28.8930  -10.5670  -29.6040 C   0  0  0  0  0  0  0  0  0  0  0  0
  -29.3310   -4.6520  -28.5460 C   0  0  0  0  0  0  0  0  0  0  0  0
  1  2  2  0
  1  6  1  0
  1  3  1  0
  2  4  1  0
  8  3  1  1
  4  5  2  0
  5  6  1  0
  6  7  1  0
  8  9  1  0
  8 12  1  0
  9 10  1  0
 10 11  1  0
 11 12  1  0
  7 13  1  0
M  END
>  <name>  (384) 
Car Nac Nd0 Car Nac Nac Cs3 C3r C3r O_a C3r C3r Cs3

>  <indices>  (384) 
[0, 1, 2]

>  <tasks>  (384) 
probe_placing close_aromatic_ring close_aromatic_ring close_aromatic_ring ring_built build_to_Nac build_to_Nd0 close_aliphatic_ring close_aliphatic_ring close_aliphatic_ring close_aliphatic_ring

>  <prot_clashes>  (384) 
7

>  <NBS phar>  (384) 
0.22000000000000003

>  <NBS_non-phar>  (384) 
0.3673797387343187

>  <NBS>  (384) 
0.5873797387343187

>  <source_stage>  (384) 
scored

>  <source_iter>  (384) 
10

>  <source_parent_mol>  (384) 
0

>  <source_scenario>  (384) 
1 2 3 1 0 7 4 0 3 0

>  <source_rank_in_scored_call>  (384) 
108

>  <source_current_task>  (384) 
no_task

>  <scenario>  (384) 
1 2 3 1 0 7 4 0 3

>  <protected_ring_attachments>  (384) 
3,1,0,2|1,0,2;4,5,0,2|5,0,2;9,8,7,2|8,7,2;10,11,7,2|11,7,2

>  <current_task>  (384) 
no_task

>  <rotatable_bond_torsions>  (384) 
1,0,2,7;0,2,7,8

$$$$

     RDKit          3D

 14 15  0  0  0  0  0  0  0  0999 V2000
  -27.6670   -6.9710  -30.6540 C   0  0  0  0  0  0  0  0  0  0  0  0
  -27.4380   -6.7870  -31.9850 N   0  0  0  0  0  0  0  0  0  0  0  0
  -26.9760   -8.0810  -29.9090 N   0  0  0  0  0  0  0  0  0  0  0  0
  -28.1460   -5.7170  -32.3930 C   0  0  0  0  0  0  0  0  0  0  0  0
  -28.8100   -5.2510  -31.3000 N   0  0  0  0  0  0  0  0  0  0  0  0
  -28.5190   -6.0090  -30.2560 N   0  0  0  0  0  0  0  0  0  0  0  0
  -28.7280   -5.8740  -28.7920 C   0  0  0  0  0  0  0  0  0  0  0  0
  -27.6970   -9.4610  -29.9560 C   0  0  2  0  0  0  0  0  0  0  0  0
  -28.9540   -9.2820  -30.7900 C   0  0  0  0  0  0  0  0  0  0  0  0
  -29.4550  -10.6650  -31.0790 C   0  0  0  0  0  0  0  0  0  0  0  0
  -29.7440  -11.3500  -29.7660 C   0  0  0  0  0  0  0  0  0  0  0  0
  -28.5980  -11.4410  -28.9850 O   0  0  0  0  0  0  0  0  0  0  0  0
  -28.0610  -10.2030  -28.6800 C   0  0  0  0  0  0  0  0  0  0  0  0
  -29.5930  -11.1290  -32.0190 O   0  0  0  0  0  0  0  0  0  0  0  0
  1  2  2  0
  1  6  1  0
  1  3  1  0
  2  4  1  0
  8  3  1  1
  4  5  2  0
  5  6  1  0
  6  7  1  0
  8  9  1  0
  8 13  1  0
  9 10  1  0
 10 14  2  0
 10 11  1  0
 11 12  1  0
 12 13  1  0
M  END
>  <name>  (385) 
Car Nac Nd0 Car Nac Nac Cs3 C3r C3r C2r C3r O_a C3r .=O

>  <indices>  (385) 
[0, 1, 2]

>  <tasks>  (385) 
probe_placing close_aromatic_ring close_aromatic_ring close_aromatic_ring ring_built build_to_Nac build_to_Nd0 close_aliphatic_ring close_aliphatic_ring close_aliphatic_ring close_aliphatic_ring close_aliphatic_ring

>  <prot_clashes>  (385) 
7

>  <NBS phar>  (385) 
0.22000000000000003

>  <NBS_non-phar>  (385) 
0.5050125803266253

>  <NBS>  (385) 
0.7250125803266254

>  <source_stage>  (385) 
scored

>  <source_iter>  (385) 
11

>  <source_parent_mol>  (385) 
1

>  <source_scenario>  (385) 
1 2 3 1 0 7 4 4 5 0 1

>  <source_rank_in_scored_call>  (385) 
0

>  <source_current_task>  (385) 
build_DB_to_Cs2

>  <scenario>  (385) 
1 2 3 1 0 7 4 4 5 0

>  <protected_ring_attachments>  (385) 
3,1,0,2|1,0,2;4,5,0,2|5,0,2;9,8,7,2|8,7,2;11,12,7,2|12,7,2

>  <current_task>  (385) 
no_task

>  <rotatable_bond_torsions>  (385) 
1,0,2,7;0,2,7,8

$$$$

     RDKit          3D

 14 15  0  0  0  0  0  0  0  0999 V2000
  -27.6300   -6.9630  -30.7410 C   0  0  0  0  0  0  0  0  0  0  0  0
  -27.4020   -6.8140  -32.0760 N   0  0  0  0  0  0  0  0  0  0  0  0
  -26.9450   -8.0580  -29.9690 N   0  0  0  0  0  0  0  0  0  0  0  0
  -28.1030   -5.7510  -32.5110 C   0  0  0  0  0  0  0  0  0  0  0  0
  -28.7620   -5.2520  -31.4290 N   0  0  0  0  0  0  0  0  0  0  0  0
  -28.4750   -5.9850  -30.3660 N   0  0  0  0  0  0  0  0  0  0  0  0
  -28.6800   -5.8110  -28.9060 C   0  0  0  0  0  0  0  0  0  0  0  0
  -27.6750   -9.4340  -29.9790 C   0  0  2  0  0  0  0  0  0  0  0  0
  -28.9320   -9.2680  -30.8160 C   0  0  0  0  0  0  0  0  0  0  0  0
  -29.4440  -10.6530  -31.0690 C   0  0  0  0  0  0  0  0  0  0  0  0
  -29.7350  -11.3030  -29.7380 C   0  0  0  0  0  0  0  0  0  0  0  0
  -28.5890  -11.3820  -28.9560 O   0  0  0  0  0  0  0  0  0  0  0  0
  -28.0430  -10.1390  -28.6850 C   0  0  0  0  0  0  0  0  0  0  0  0
  -29.7800  -10.9530  -32.1350 O   0  0  0  0  0  0  0  0  0  0  0  0
  1  2  2  0
  1  6  1  0
  1  3  1  0
  2  4  1  0
  8  3  1  1
  4  5  2  0
  5  6  1  0
  6  7  1  0
  8  9  1  0
  8 13  1  0
  9 10  1  0
 10 14  2  0
 10 11  1  0
 11 12  1  0
 12 13  1  0
M  END
>  <name>  (386) 
Car Nac Nd0 Car Nac Nac Cs3 C3r C3r C2r C3r O_a C3r .=O

>  <indices>  (386) 
[0, 1, 2]

>  <tasks>  (386) 
probe_placing close_aromatic_ring close_aromatic_ring close_aromatic_ring ring_built build_to_Nac build_to_Nd0 close_aliphatic_ring close_aliphatic_ring close_aliphatic_ring close_aliphatic_ring close_aliphatic_ring

>  <prot_clashes>  (386) 
7

>  <NBS phar>  (386) 
0.22000000000000003

>  <NBS_non-phar>  (386) 
0.4735381943838937

>  <NBS>  (386) 
0.6935381943838937

>  <source_stage>  (386) 
scored

>  <source_iter>  (386) 
11

>  <source_parent_mol>  (386) 
1

>  <source_scenario>  (386) 
1 2 3 1 0 7 4 4 5 0 1

>  <source_rank_in_scored_call>  (386) 
1

>  <source_current_task>  (386) 
build_DB_to_Cs2

>  <scenario>  (386) 
1 2 3 1 0 7 4 4 5 0

>  <protected_ring_attachments>  (386) 
3,1,0,2|1,0,2;4,5,0,2|5,0,2;9,8,7,2|8,7,2;11,12,7,2|12,7,2

>  <current_task>  (386) 
no_task

>  <rotatable_bond_torsions>  (386) 
1,0,2,7;0,2,7,8

$$$$

     RDKit          3D

 15 16  0  0  0  0  0  0  0  0999 V2000
  -27.3910   -6.9010  -30.9470 C   0  0  0  0  0  0  0  0  0  0  0  0
  -27.3660   -6.6630  -32.2890 N   0  0  0  0  0  0  0  0  0  0  0  0
  -26.6990   -8.1080  -30.3750 N   0  0  0  0  0  0  0  0  0  0  0  0
  -28.0240   -5.5130  -32.5280 C   0  0  0  0  0  0  0  0  0  0  0  0
  -28.4520   -5.0520  -31.3210 N   0  0  0  0  0  0  0  0  0  0  0  0
  -28.0690   -5.8900  -30.3730 N   0  0  0  0  0  0  0  0  0  0  0  0
  -28.0210   -5.8200  -28.8900 C   0  0  0  0  0  0  0  0  0  0  0  0
  -27.5490   -9.4130  -30.3560 C   0  0  2  0  0  0  0  0  0  0  0  0
  -28.9020   -9.0760  -30.9580 C   0  0  0  0  0  0  0  0  0  0  0  0
  -29.5750  -10.3910  -31.2140 C   0  0  0  0  0  0  0  0  0  0  0  0
  -29.7110  -11.1200  -29.9000 C   0  0  0  0  0  0  0  0  0  0  0  0
  -28.4670  -11.3560  -29.3280 O   0  0  0  0  0  0  0  0  0  0  0  0
  -27.7690  -10.1900  -29.0680 C   0  0  0  0  0  0  0  0  0  0  0  0
  -29.9100  -10.7870  -32.1360 O   0  0  0  0  0  0  0  0  0  0  0  0
  -29.1890   -6.6330  -28.3860 C   0  0  0  0  0  0  0  0  0  0  0  0
  1  2  2  0
  1  3  1  0
  1  6  1  0
  2  4  1  0
  8  3  1  1
  4  5  2  0
  5  6  1  0
  6  7  1  0
  8  9  1  0
  8 13  1  0
  9 10  1  0
 10 14  2  0
 10 11  1  0
 11 12  1  0
 12 13  1  0
  7 15  1  0
M  END
>  <name>  (387) 
Car Nac Nd0 Car Nac Nac Cs3 C3r C3r C2r C3r O_a C3r .=O Cs3

>  <indices>  (387) 
[0, 1, 2]

>  <tasks>  (387) 
probe_placing close_aromatic_ring close_aromatic_ring close_aromatic_ring ring_built build_to_Nac build_to_Nd0 close_aliphatic_ring close_aliphatic_ring close_aliphatic_ring close_aliphatic_ring close_aliphatic_ring build_DB_to_Cs2

>  <prot_clashes>  (387) 
12

>  <NBS phar>  (387) 
0.25999999999999995

>  <NBS_non-phar>  (387) 
0.5368905385335286

>  <NBS>  (387) 
0.7968905385335285

>  <source_stage>  (387) 
scored

>  <source_iter>  (387) 
12

>  <source_parent_mol>  (387) 
0

>  <source_scenario>  (387) 
1 2 3 1 0 7 4 4 5 0 1 0

>  <source_rank_in_scored_call>  (387) 
0

>  <source_current_task>  (387) 
no_task

>  <scenario>  (387) 
1 2 3 1 0 7 4 4 5 0 1

>  <protected_ring_attachments>  (387) 
3,1,0,2|1,0,2;4,5,0,2|5,0,2;9,8,7,2|8,7,2;11,12,7,2|12,7,2

>  <current_task>  (387) 
no_task

>  <rotatable_bond_torsions>  (387) 
1,0,2,7;0,2,7,8

$$$$

     RDKit          3D

 15 16  0  0  0  0  0  0  0  0999 V2000
  -27.4910   -6.9790  -30.8050 C   0  0  0  0  0  0  0  0  0  0  0  0
  -27.3060   -6.7950  -32.1430 N   0  0  0  0  0  0  0  0  0  0  0  0
  -26.8560   -8.1490  -30.1030 N   0  0  0  0  0  0  0  0  0  0  0  0
  -27.9470   -5.6690  -32.5080 C   0  0  0  0  0  0  0  0  0  0  0  0
  -28.5250   -5.1690  -31.3820 N   0  0  0  0  0  0  0  0  0  0  0  0
  -28.2490   -5.9610  -30.3600 N   0  0  0  0  0  0  0  0  0  0  0  0
  -28.3840   -5.8300  -28.8870 C   0  0  0  0  0  0  0  0  0  0  0  0
  -27.6820   -9.4690  -30.1320 C   0  0  2  0  0  0  0  0  0  0  0  0
  -28.9560   -9.1830  -30.9080 C   0  0  0  0  0  0  0  0  0  0  0  0
  -29.5740  -10.5200  -31.1890 C   0  0  0  0  0  0  0  0  0  0  0  0
  -29.8580  -11.1990  -29.8720 C   0  0  0  0  0  0  0  0  0  0  0  0
  -28.6890  -11.3880  -29.1430 O   0  0  0  0  0  0  0  0  0  0  0  0
  -28.0460  -10.1990  -28.8490 C   0  0  0  0  0  0  0  0  0  0  0  0
  -29.7870  -10.9590  -32.1270 O   0  0  0  0  0  0  0  0  0  0  0  0
  -29.6020   -5.0220  -28.4950 C   0  0  0  0  0  0  0  0  0  0  0  0
  1  2  2  0
  1  6  1  0
  1  3  1  0
  2  4  1  0
  8  3  1  1
  4  5  2  0
  5  6  1  0
  6  7  1  0
  8  9  1  0
  8 13  1  0
  9 10  1  0
 10 14  2  0
 10 11  1  0
 11 12  1  0
 12 13  1  0
  7 15  1  0
M  END
>  <name>  (388) 
Car Nac Nd0 Car Nac Nac Cs3 C3r C3r C2r C3r O_a C3r .=O Cs3

>  <indices>  (388) 
[0, 1, 2]

>  <tasks>  (388) 
probe_placing close_aromatic_ring close_aromatic_ring close_aromatic_ring ring_built build_to_Nac build_to_Nd0 close_aliphatic_ring close_aliphatic_ring close_aliphatic_ring close_aliphatic_ring close_aliphatic_ring build_DB_to_Cs2

>  <prot_clashes>  (388) 
10

>  <NBS phar>  (388) 
0.25999999999999995

>  <NBS_non-phar>  (388) 
0.4718784332275391

>  <NBS>  (388) 
0.731878433227539

>  <source_stage>  (388) 
scored

>  <source_iter>  (388) 
12

>  <source_parent_mol>  (388) 
0

>  <source_scenario>  (388) 
1 2 3 1 0 7 4 4 5 0 1 0

>  <source_rank_in_scored_call>  (388) 
26

>  <source_current_task>  (388) 
no_task

>  <scenario>  (388) 
1 2 3 1 0 7 4 4 5 0 1

>  <protected_ring_attachments>  (388) 
3,1,0,2|1,0,2;4,5,0,2|5,0,2;9,8,7,2|8,7,2;11,12,7,2|12,7,2

>  <current_task>  (388) 
no_task

>  <rotatable_bond_torsions>  (388) 
1,0,2,7;0,2,7,8

$$$$

     RDKit          3D

 15 16  0  0  0  0  0  0  0  0999 V2000
  -27.6800   -6.9540  -30.7030 C   0  0  0  0  0  0  0  0  0  0  0  0
  -27.3190   -6.8130  -32.0100 N   0  0  0  0  0  0  0  0  0  0  0  0
  -27.0900   -8.0570  -29.8660 N   0  0  0  0  0  0  0  0  0  0  0  0
  -27.9590   -5.7410  -32.5130 C   0  0  0  0  0  0  0  0  0  0  0  0
  -28.7140   -5.2300  -31.5030 N   0  0  0  0  0  0  0  0  0  0  0  0
  -28.5430   -5.9640  -30.4150 N   0  0  0  0  0  0  0  0  0  0  0  0
  -28.8890   -5.7820  -28.9830 C   0  0  0  0  0  0  0  0  0  0  0  0
  -27.8360   -9.4220  -29.9460 C   0  0  2  0  0  0  0  0  0  0  0  0
  -29.0020   -9.2410  -30.9020 C   0  0  0  0  0  0  0  0  0  0  0  0
  -29.5060  -10.6200  -31.2020 C   0  0  0  0  0  0  0  0  0  0  0  0
  -29.9360  -11.2610  -29.9050 C   0  0  0  0  0  0  0  0  0  0  0  0
  -28.8730  -11.3540  -29.0150 O   0  0  0  0  0  0  0  0  0  0  0  0
  -28.3390  -10.1190  -28.6920 C   0  0  0  0  0  0  0  0  0  0  0  0
  -29.5630  -11.1080  -32.1380 O   0  0  0  0  0  0  0  0  0  0  0  0
  -28.9180   -4.2450  -28.4430 C   0  0  0  0  0  0  0  0  0  0  0  0
  1  2  2  0
  1  6  1  0
  1  3  1  0
  2  4  1  0
  8  3  1  1
  4  5  2  0
  5  6  1  0
  6  7  1  0
  8  9  1  0
  8 13  1  0
  9 10  1  0
 10 14  2  0
 10 11  1  0
 11 12  1  0
 12 13  1  0
  7 15  1  0
M  END
>  <name>  (389) 
Car Nac Nd0 Car Nac Nac Cs3 C3r C3r C2r C3r O_a C3r .=O Cs3

>  <indices>  (389) 
[0, 1, 2]

>  <tasks>  (389) 
probe_placing close_aromatic_ring close_aromatic_ring close_aromatic_ring ring_built build_to_Nac build_to_Nd0 close_aliphatic_ring close_aliphatic_ring close_aliphatic_ring close_aliphatic_ring close_aliphatic_ring build_DB_to_Cs2

>  <prot_clashes>  (389) 
9

>  <NBS phar>  (389) 
0.24000000000000005

>  <NBS_non-phar>  (389) 
0.48813295364379883

>  <NBS>  (389) 
0.7281329536437988

>  <source_stage>  (389) 
scored

>  <source_iter>  (389) 
12

>  <source_parent_mol>  (389) 
0

>  <source_scenario>  (389) 
1 2 3 1 0 7 4 4 5 0 1 0

>  <source_rank_in_scored_call>  (389) 
31

>  <source_current_task>  (389) 
no_task

>  <scenario>  (389) 
1 2 3 1 0 7 4 4 5 0 1

>  <protected_ring_attachments>  (389) 
3,1,0,2|1,0,2;4,5,0,2|5,0,2;9,8,7,2|8,7,2;11,12,7,2|12,7,2

>  <current_task>  (389) 
no_task

>  <rotatable_bond_torsions>  (389) 
1,0,2,7;0,2,7,8

$$$$

     RDKit          3D

 15 16  0  0  0  0  0  0  0  0999 V2000
  -27.6780   -6.9160  -30.8000 C   0  0  0  0  0  0  0  0  0  0  0  0
  -27.3780   -6.7760  -32.1220 N   0  0  0  0  0  0  0  0  0  0  0  0
  -27.0320   -8.0040  -29.9840 N   0  0  0  0  0  0  0  0  0  0  0  0
  -28.0590   -5.7180  -32.6010 C   0  0  0  0  0  0  0  0  0  0  0  0
  -28.7780   -5.2150  -31.5600 N   0  0  0  0  0  0  0  0  0  0  0  0
  -28.5460   -5.9400  -30.4780 N   0  0  0  0  0  0  0  0  0  0  0  0
  -28.8320   -5.7580  -29.0320 C   0  0  0  0  0  0  0  0  0  0  0  0
  -27.7550   -9.3830  -30.0250 C   0  0  2  0  0  0  0  0  0  0  0  0
  -28.9650   -9.2280  -30.9300 C   0  0  0  0  0  0  0  0  0  0  0  0
  -29.4560  -10.6180  -31.2010 C   0  0  0  0  0  0  0  0  0  0  0  0
  -29.8170  -11.2600  -29.8840 C   0  0  0  0  0  0  0  0  0  0  0  0
  -28.7140  -11.3290  -29.0410 O   0  0  0  0  0  0  0  0  0  0  0  0
  -28.1890  -10.0830  -28.7480 C   0  0  0  0  0  0  0  0  0  0  0  0
  -29.5460  -11.1120  -32.1320 O   0  0  0  0  0  0  0  0  0  0  0  0
  -27.7650   -4.8930  -28.3930 C   0  0  0  0  0  0  0  0  0  0  0  0
  1  2  2  0
  1  6  1  0
  1  3  1  0
  2  4  1  0
  8  3  1  1
  4  5  2  0
  5  6  1  0
  6  7  1  0
  8  9  1  0
  8 13  1  0
  9 10  1  0
 10 14  2  0
 10 11  1  0
 11 12  1  0
 12 13  1  0
  7 15  1  0
M  END
>  <name>  (390) 
Car Nac Nd0 Car Nac Nac Cs3 C3r C3r C2r C3r O_a C3r .=O Cs3

>  <indices>  (390) 
[0, 1, 2]

>  <tasks>  (390) 
probe_placing close_aromatic_ring close_aromatic_ring close_aromatic_ring ring_built build_to_Nac build_to_Nd0 close_aliphatic_ring close_aliphatic_ring close_aliphatic_ring close_aliphatic_ring close_aliphatic_ring build_DB_to_Cs2

>  <prot_clashes>  (390) 
10

>  <NBS phar>  (390) 
0.22000000000000003

>  <NBS_non-phar>  (390) 
0.5058242162068685

>  <NBS>  (390) 
0.7258242162068684

>  <source_stage>  (390) 
scored

>  <source_iter>  (390) 
12

>  <source_parent_mol>  (390) 
0

>  <source_scenario>  (390) 
1 2 3 1 0 7 4 4 5 0 1 0

>  <source_rank_in_scored_call>  (390) 
34

>  <source_current_task>  (390) 
no_task

>  <scenario>  (390) 
1 2 3 1 0 7 4 4 5 0 1

>  <protected_ring_attachments>  (390) 
3,1,0,2|1,0,2;4,5,0,2|5,0,2;9,8,7,2|8,7,2;11,12,7,2|12,7,2

>  <current_task>  (390) 
no_task

>  <rotatable_bond_torsions>  (390) 
1,0,2,7;0,2,7,8

$$$$

     RDKit          3D

 15 16  0  0  0  0  0  0  0  0999 V2000
  -27.6780   -6.9400  -30.7200 C   0  0  0  0  0  0  0  0  0  0  0  0
  -27.3350   -6.7960  -32.0310 N   0  0  0  0  0  0  0  0  0  0  0  0
  -27.0720   -8.0410  -29.8910 N   0  0  0  0  0  0  0  0  0  0  0  0
  -27.9870   -5.7260  -32.5250 C   0  0  0  0  0  0  0  0  0  0  0  0
  -28.7310   -5.2200  -31.5030 N   0  0  0  0  0  0  0  0  0  0  0  0
  -28.5420   -5.9540  -30.4190 N   0  0  0  0  0  0  0  0  0  0  0  0
  -28.8700   -5.7760  -28.9820 C   0  0  0  0  0  0  0  0  0  0  0  0
  -27.8120   -9.4100  -29.9630 C   0  0  2  0  0  0  0  0  0  0  0  0
  -28.9920   -9.2330  -30.9040 C   0  0  0  0  0  0  0  0  0  0  0  0
  -29.4930  -10.6140  -31.1980 C   0  0  0  0  0  0  0  0  0  0  0  0
  -29.9030  -11.2590  -29.8970 C   0  0  0  0  0  0  0  0  0  0  0  0
  -28.8280  -11.3470  -29.0200 O   0  0  0  0  0  0  0  0  0  0  0  0
  -28.2950  -10.1100  -28.7030 C   0  0  0  0  0  0  0  0  0  0  0  0
  -29.5610  -11.1010  -32.1340 O   0  0  0  0  0  0  0  0  0  0  0  0
  -28.5460   -4.3470  -28.4010 C   0  0  0  0  0  0  0  0  0  0  0  0
  1  2  2  0
  1  6  1  0
  1  3  1  0
  2  4  1  0
  8  3  1  1
  4  5  2  0
  5  6  1  0
  6  7  1  0
  8  9  1  0
  8 13  1  0
  9 10  1  0
 10 14  2  0
 10 11  1  0
 11 12  1  0
 12 13  1  0
  7 15  1  0
M  END
>  <name>  (391) 
Car Nac Nd0 Car Nac Nac Cs3 C3r C3r C2r C3r O_a C3r .=O Cs3

>  <indices>  (391) 
[0, 1, 2]

>  <tasks>  (391) 
probe_placing close_aromatic_ring close_aromatic_ring close_aromatic_ring ring_built build_to_Nac build_to_Nd0 close_aliphatic_ring close_aliphatic_ring close_aliphatic_ring close_aliphatic_ring close_aliphatic_ring build_DB_to_Cs2

>  <prot_clashes>  (391) 
9

>  <NBS phar>  (391) 
0.22000000000000003

>  <NBS_non-phar>  (391) 
0.4927664756774902

>  <NBS>  (391) 
0.7127664756774903

>  <source_stage>  (391) 
scored

>  <source_iter>  (391) 
12

>  <source_parent_mol>  (391) 
0

>  <source_scenario>  (391) 
1 2 3 1 0 7 4 4 5 0 1 0

>  <source_rank_in_scored_call>  (391) 
51

>  <source_current_task>  (391) 
no_task

>  <scenario>  (391) 
1 2 3 1 0 7 4 4 5 0 1

>  <protected_ring_attachments>  (391) 
3,1,0,2|1,0,2;4,5,0,2|5,0,2;9,8,7,2|8,7,2;11,12,7,2|12,7,2

>  <current_task>  (391) 
no_task

>  <rotatable_bond_torsions>  (391) 
1,0,2,7;0,2,7,8

$$$$

     RDKit          3D

 15 16  0  0  0  0  0  0  0  0999 V2000
  -27.6070   -6.9850  -30.7570 C   0  0  0  0  0  0  0  0  0  0  0  0
  -27.3470   -6.8120  -32.0840 N   0  0  0  0  0  0  0  0  0  0  0  0
  -26.9470   -8.1000  -29.9910 N   0  0  0  0  0  0  0  0  0  0  0  0
  -28.0310   -5.7350  -32.5130 C   0  0  0  0  0  0  0  0  0  0  0  0
  -28.7110   -5.2530  -31.4370 N   0  0  0  0  0  0  0  0  0  0  0  0
  -28.4530   -6.0080  -30.3830 N   0  0  0  0  0  0  0  0  0  0  0  0
  -28.6910   -5.8610  -28.9250 C   0  0  0  0  0  0  0  0  0  0  0  0
  -27.6870   -9.4700  -30.0460 C   0  0  2  0  0  0  0  0  0  0  0  0
  -28.9240   -9.2780  -30.9070 C   0  0  0  0  0  0  0  0  0  0  0  0
  -29.4380  -10.6550  -31.1980 C   0  0  0  0  0  0  0  0  0  0  0  0
  -29.7640  -11.3280  -29.8880 C   0  0  0  0  0  0  0  0  0  0  0  0
  -28.6360  -11.4310  -29.0820 O   0  0  0  0  0  0  0  0  0  0  0  0
  -28.0880  -10.1990  -28.7730 C   0  0  0  0  0  0  0  0  0  0  0  0
  -29.5630  -11.1230  -32.1380 O   0  0  0  0  0  0  0  0  0  0  0  0
  -29.1880   -4.4680  -28.5290 C   0  0  0  0  0  0  0  0  0  0  0  0
  1  2  2  0
  1  6  1  0
  1  3  1  0
  2  4  1  0
  8  3  1  1
  4  5  2  0
  5  6  1  0
  6  7  1  0
  8  9  1  0
  8 13  1  0
  9 10  1  0
 10 14  2  0
 10 11  1  0
 11 12  1  0
 12 13  1  0
  7 15  1  0
M  END
>  <name>  (392) 
Car Nac Nd0 Car Nac Nac Cs3 C3r C3r C2r C3r O_a C3r .=O Cs3

>  <indices>  (392) 
[0, 1, 2]

>  <tasks>  (392) 
probe_placing close_aromatic_ring close_aromatic_ring close_aromatic_ring ring_built build_to_Nac build_to_Nd0 close_aliphatic_ring close_aliphatic_ring close_aliphatic_ring close_aliphatic_ring close_aliphatic_ring build_DB_to_Cs2

>  <prot_clashes>  (392) 
9

>  <NBS phar>  (392) 
0.26

>  <NBS_non-phar>  (392) 
0.43595431645711263

>  <NBS>  (392) 
0.6959543164571127

>  <source_stage>  (392) 
scored

>  <source_iter>  (392) 
12

>  <source_parent_mol>  (392) 
0

>  <source_scenario>  (392) 
1 2 3 1 0 7 4 4 5 0 1 0

>  <source_rank_in_scored_call>  (392) 
78

>  <source_current_task>  (392) 
no_task

>  <scenario>  (392) 
1 2 3 1 0 7 4 4 5 0 1

>  <protected_ring_attachments>  (392) 
3,1,0,2|1,0,2;4,5,0,2|5,0,2;9,8,7,2|8,7,2;11,12,7,2|12,7,2

>  <current_task>  (392) 
no_task

>  <rotatable_bond_torsions>  (392) 
1,0,2,7;0,2,7,8

$$$$

     RDKit          3D

 15 16  0  0  0  0  0  0  0  0999 V2000
  -27.6320   -7.0340  -30.7750 C   0  0  0  0  0  0  0  0  0  0  0  0
  -27.3900   -6.8560  -32.1040 N   0  0  0  0  0  0  0  0  0  0  0  0
  -26.9560   -8.1460  -30.0200 N   0  0  0  0  0  0  0  0  0  0  0  0
  -28.0870   -5.7820  -32.5220 C   0  0  0  0  0  0  0  0  0  0  0  0
  -28.7570   -5.3080  -31.4360 N   0  0  0  0  0  0  0  0  0  0  0  0
  -28.4810   -6.0650  -30.3870 N   0  0  0  0  0  0  0  0  0  0  0  0
  -28.7010   -5.9230  -28.9260 C   0  0  0  0  0  0  0  0  0  0  0  0
  -27.6860   -9.5210  -30.0690 C   0  0  2  0  0  0  0  0  0  0  0  0
  -28.9350   -9.3360  -30.9140 C   0  0  0  0  0  0  0  0  0  0  0  0
  -29.4430  -10.7160  -31.2030 C   0  0  0  0  0  0  0  0  0  0  0  0
  -29.7480  -11.3950  -29.8900 C   0  0  0  0  0  0  0  0  0  0  0  0
  -28.6100  -11.4910  -29.0990 O   0  0  0  0  0  0  0  0  0  0  0  0
  -28.0670  -10.2560  -28.7930 C   0  0  0  0  0  0  0  0  0  0  0  0
  -29.5760  -11.1830  -32.1420 O   0  0  0  0  0  0  0  0  0  0  0  0
  -28.2720   -7.0160  -28.0140 C   0  0  0  0  0  0  0  0  0  0  0  0
  1  2  2  0
  1  6  1  0
  1  3  1  0
  2  4  1  0
  8  3  1  1
  4  5  2  0
  5  6  1  0
  6  7  1  0
  8  9  1  0
  8 13  1  0
  9 10  1  0
 10 14  2  0
 10 11  1  0
 11 12  1  0
 12 13  1  0
  7 15  1  0
M  END
>  <name>  (393) 
Car Nac Nd0 Car Nac Nac Cs3 C3r C3r C2r C3r O_a C3r .=O Cs3

>  <indices>  (393) 
[0, 1, 2]

>  <tasks>  (393) 
probe_placing close_aromatic_ring close_aromatic_ring close_aromatic_ring ring_built build_to_Nac build_to_Nd0 close_aliphatic_ring close_aliphatic_ring close_aliphatic_ring close_aliphatic_ring close_aliphatic_ring build_DB_to_Cs2

>  <prot_clashes>  (393) 
10

>  <NBS phar>  (393) 
0.22000000000000003

>  <NBS_non-phar>  (393) 
0.4690959612528483

>  <NBS>  (393) 
0.6890959612528483

>  <source_stage>  (393) 
scored

>  <source_iter>  (393) 
12

>  <source_parent_mol>  (393) 
0

>  <source_scenario>  (393) 
1 2 3 1 0 7 4 4 5 0 1 0

>  <source_rank_in_scored_call>  (393) 
95

>  <source_current_task>  (393) 
no_task

>  <scenario>  (393) 
1 2 3 1 0 7 4 4 5 0 1

>  <protected_ring_attachments>  (393) 
3,1,0,2|1,0,2;4,5,0,2|5,0,2;9,8,7,2|8,7,2;11,12,7,2|12,7,2

>  <current_task>  (393) 
no_task

>  <rotatable_bond_torsions>  (393) 
1,0,2,7;0,2,7,8

$$$$

     RDKit          3D

 15 16  0  0  0  0  0  0  0  0999 V2000
  -27.5880   -7.0940  -30.7810 C   0  0  0  0  0  0  0  0  0  0  0  0
  -27.3690   -6.9120  -32.1140 N   0  0  0  0  0  0  0  0  0  0  0  0
  -26.9240   -8.2280  -30.0480 N   0  0  0  0  0  0  0  0  0  0  0  0
  -28.0480   -5.8190  -32.5100 C   0  0  0  0  0  0  0  0  0  0  0  0
  -28.6840   -5.3360  -31.4080 N   0  0  0  0  0  0  0  0  0  0  0  0
  -28.4050   -6.1070  -30.3700 N   0  0  0  0  0  0  0  0  0  0  0  0
  -28.5930   -5.9710  -28.9030 C   0  0  0  0  0  0  0  0  0  0  0  0
  -27.6890   -9.5850  -30.0910 C   0  0  2  0  0  0  0  0  0  0  0  0
  -28.9490   -9.3630  -30.9100 C   0  0  0  0  0  0  0  0  0  0  0  0
  -29.4970  -10.7280  -31.1980 C   0  0  0  0  0  0  0  0  0  0  0  0
  -29.7920  -11.4090  -29.8840 C   0  0  0  0  0  0  0  0  0  0  0  0
  -28.6410  -11.5390  -29.1170 O   0  0  0  0  0  0  0  0  0  0  0  0
  -28.0620  -10.3190  -28.8140 C   0  0  0  0  0  0  0  0  0  0  0  0
  -29.6610  -11.1840  -32.1380 O   0  0  0  0  0  0  0  0  0  0  0  0
  -27.9800   -7.0190  -27.9690 C   0  0  0  0  0  0  0  0  0  0  0  0
  1  2  2  0
  1  6  1  0
  1  3  1  0
  2  4  1  0
  8  3  1  1
  4  5  2  0
  5  6  1  0
  6  7  1  0
  8  9  1  0
  8 13  1  0
  9 10  1  0
 10 14  2  0
 10 11  1  0
 11 12  1  0
 12 13  1  0
  7 15  1  0
M  END
>  <name>  (394) 
Car Nac Nd0 Car Nac Nac Cs3 C3r C3r C2r C3r O_a C3r .=O Cs3

>  <indices>  (394) 
[0, 1, 2]

>  <tasks>  (394) 
probe_placing close_aromatic_ring close_aromatic_ring close_aromatic_ring ring_built build_to_Nac build_to_Nd0 close_aliphatic_ring close_aliphatic_ring close_aliphatic_ring close_aliphatic_ring close_aliphatic_ring build_DB_to_Cs2

>  <prot_clashes>  (394) 
10

>  <NBS phar>  (394) 
0.24000000000000005

>  <NBS_non-phar>  (394) 
0.44075085322062174

>  <NBS>  (394) 
0.6807508532206218

>  <source_stage>  (394) 
scored

>  <source_iter>  (394) 
12

>  <source_parent_mol>  (394) 
0

>  <source_scenario>  (394) 
1 2 3 1 0 7 4 4 5 0 1 0

>  <source_rank_in_scored_call>  (394) 
104

>  <source_current_task>  (394) 
no_task

>  <scenario>  (394) 
1 2 3 1 0 7 4 4 5 0 1

>  <protected_ring_attachments>  (394) 
3,1,0,2|1,0,2;4,5,0,2|5,0,2;9,8,7,2|8,7,2;11,12,7,2|12,7,2

>  <current_task>  (394) 
no_task

>  <rotatable_bond_torsions>  (394) 
1,0,2,7;0,2,7,8

$$$$

     RDKit          3D

 15 16  0  0  0  0  0  0  0  0999 V2000
  -27.6610   -6.9950  -30.7370 C   0  0  0  0  0  0  0  0  0  0  0  0
  -27.3680   -6.8320  -32.0580 N   0  0  0  0  0  0  0  0  0  0  0  0
  -27.0170   -8.1010  -29.9450 N   0  0  0  0  0  0  0  0  0  0  0  0
  -28.0440   -5.7610  -32.5130 C   0  0  0  0  0  0  0  0  0  0  0  0
  -28.7540   -5.2730  -31.4590 N   0  0  0  0  0  0  0  0  0  0  0  0
  -28.5210   -6.0190  -30.3930 N   0  0  0  0  0  0  0  0  0  0  0  0
  -28.7970   -5.8620  -28.9420 C   0  0  0  0  0  0  0  0  0  0  0  0
  -27.7490   -9.4740  -30.0080 C   0  0  2  0  0  0  0  0  0  0  0  0
  -28.9640   -9.2950  -30.9020 C   0  0  0  0  0  0  0  0  0  0  0  0
  -29.4650  -10.6770  -31.1960 C   0  0  0  0  0  0  0  0  0  0  0  0
  -29.8220  -11.3410  -29.8890 C   0  0  0  0  0  0  0  0  0  0  0  0
  -28.7150  -11.4320  -29.0540 O   0  0  0  0  0  0  0  0  0  0  0  0
  -28.1800  -10.1950  -28.7400 C   0  0  0  0  0  0  0  0  0  0  0  0
  -29.5630  -11.1530  -32.1350 O   0  0  0  0  0  0  0  0  0  0  0  0
  -29.1480   -4.3280  -28.6970 C   0  0  0  0  0  0  0  0  0  0  0  0
  1  2  2  0
  1  6  1  0
  1  3  1  0
  2  4  1  0
  8  3  1  1
  4  5  2  0
  5  6  1  0
  6  7  1  0
  8  9  1  0
  8 13  1  0
  9 10  1  0
 10 14  2  0
 10 11  1  0
 11 12  1  0
 12 13  1  0
  7 15  1  0
M  END
>  <name>  (395) 
Car Nac Nd0 Car Nac Nac Cs3 C3r C3r C2r C3r O_a C3r .=O Cs3

>  <indices>  (395) 
[0, 1, 2]

>  <tasks>  (395) 
probe_placing close_aromatic_ring close_aromatic_ring close_aromatic_ring ring_built build_to_Nac build_to_Nd0 close_aliphatic_ring close_aliphatic_ring close_aliphatic_ring close_aliphatic_ring close_aliphatic_ring build_DB_to_Cs2

>  <prot_clashes>  (395) 
8

>  <NBS phar>  (395) 
0.24000000000000005

>  <NBS_non-phar>  (395) 
0.42995258967081706

>  <NBS>  (395) 
0.6699525896708172

>  <source_stage>  (395) 
scored

>  <source_iter>  (395) 
12

>  <source_parent_mol>  (395) 
0

>  <source_scenario>  (395) 
1 2 3 1 0 7 4 4 5 0 1 0

>  <source_rank_in_scored_call>  (395) 
114

>  <source_current_task>  (395) 
no_task

>  <scenario>  (395) 
1 2 3 1 0 7 4 4 5 0 1

>  <protected_ring_attachments>  (395) 
3,1,0,2|1,0,2;4,5,0,2|5,0,2;9,8,7,2|8,7,2;11,12,7,2|12,7,2

>  <current_task>  (395) 
no_task

>  <rotatable_bond_torsions>  (395) 
1,0,2,7;0,2,7,8

$$$$

     RDKit          3D

 15 16  0  0  0  0  0  0  0  0999 V2000
  -27.4590   -6.9050  -30.7780 C   0  0  0  0  0  0  0  0  0  0  0  0
  -27.4010   -6.9600  -32.1390 N   0  0  0  0  0  0  0  0  0  0  0  0
  -26.7760   -7.9550  -29.9440 N   0  0  0  0  0  0  0  0  0  0  0  0
  -28.0570   -5.8950  -32.6350 C   0  0  0  0  0  0  0  0  0  0  0  0
  -28.5170   -5.1900  -31.5650 N   0  0  0  0  0  0  0  0  0  0  0  0
  -28.1550   -5.8020  -30.4500 N   0  0  0  0  0  0  0  0  0  0  0  0
  -28.1450   -5.4150  -29.0170 C   0  0  0  0  0  0  0  0  0  0  0  0
  -27.6200   -9.2340  -29.6650 C   0  0  2  0  0  0  0  0  0  0  0  0
  -28.9590   -9.0470  -30.3590 C   0  0  0  0  0  0  0  0  0  0  0  0
  -29.6200  -10.3920  -30.3430 C   0  0  0  0  0  0  0  0  0  0  0  0
  -29.7860  -10.8240  -28.9070 C   0  0  0  0  0  0  0  0  0  0  0  0
  -28.5550  -10.9210  -28.2670 O   0  0  0  0  0  0  0  0  0  0  0  0
  -27.8700   -9.7190  -28.2460 C   0  0  0  0  0  0  0  0  0  0  0  0
  -29.9290  -10.9800  -31.1660 O   0  0  0  0  0  0  0  0  0  0  0  0
  -29.4900   -5.8180  -28.3930 C   0  0  0  0  0  0  0  0  0  0  0  0
  1  2  2  0
  1  6  1  0
  1  3  1  0
  2  4  1  0
  8  3  1  1
  4  5  2  0
  5  6  1  0
  6  7  1  0
  8  9  1  0
  8 13  1  0
  9 10  1  0
 10 14  2  0
 10 11  1  0
 11 12  1  0
 12 13  1  0
  7 15  1  0
M  END
>  <name>  (396) 
Car Nac Nd0 Car Nac Nac Cs3 C3r C3r C2r C3r O_a C3r .=O Cs3

>  <indices>  (396) 
[0, 1, 2]

>  <tasks>  (396) 
probe_placing close_aromatic_ring close_aromatic_ring close_aromatic_ring ring_built build_to_Nac build_to_Nd0 close_aliphatic_ring close_aliphatic_ring close_aliphatic_ring close_aliphatic_ring close_aliphatic_ring build_DB_to_Cs2

>  <prot_clashes>  (396) 
12

>  <NBS phar>  (396) 
0.24

>  <NBS_non-phar>  (396) 
0.42045847574869794

>  <NBS>  (396) 
0.660458475748698

>  <source_stage>  (396) 
scored

>  <source_iter>  (396) 
12

>  <source_parent_mol>  (396) 
0

>  <source_scenario>  (396) 
1 2 3 1 0 7 4 4 5 0 1 0

>  <source_rank_in_scored_call>  (396) 
128

>  <source_current_task>  (396) 
no_task

>  <scenario>  (396) 
1 2 3 1 0 7 4 4 5 0 1

>  <protected_ring_attachments>  (396) 
3,1,0,2|1,0,2;4,5,0,2|5,0,2;9,8,7,2|8,7,2;11,12,7,2|12,7,2

>  <current_task>  (396) 
no_task

>  <rotatable_bond_torsions>  (396) 
1,0,2,7;0,2,7,8

$$$$

     RDKit          3D

 15 16  0  0  0  0  0  0  0  0999 V2000
  -27.7150   -6.8090  -30.8100 C   0  0  0  0  0  0  0  0  0  0  0  0
  -27.3850   -6.7720  -32.1320 N   0  0  0  0  0  0  0  0  0  0  0  0
  -27.0890   -7.8280  -29.8970 N   0  0  0  0  0  0  0  0  0  0  0  0
  -28.0530   -5.7550  -32.7080 C   0  0  0  0  0  0  0  0  0  0  0  0
  -28.7950   -5.1720  -31.7260 N   0  0  0  0  0  0  0  0  0  0  0  0
  -28.5880   -5.8100  -30.5860 N   0  0  0  0  0  0  0  0  0  0  0  0
  -28.9060   -5.5150  -29.1660 C   0  0  0  0  0  0  0  0  0  0  0  0
  -27.8130   -9.2070  -29.8470 C   0  0  2  0  0  0  0  0  0  0  0  0
  -29.0020   -9.1230  -30.7880 C   0  0  0  0  0  0  0  0  0  0  0  0
  -29.4890  -10.5300  -30.9600 C   0  0  0  0  0  0  0  0  0  0  0  0
  -29.8810  -11.0670  -29.6050 C   0  0  0  0  0  0  0  0  0  0  0  0
  -28.7970  -11.0690  -28.7350 O   0  0  0  0  0  0  0  0  0  0  0  0
  -28.2770   -9.8040  -28.5280 C   0  0  0  0  0  0  0  0  0  0  0  0
  -29.5590  -11.0950  -31.8510 O   0  0  0  0  0  0  0  0  0  0  0  0
  -28.0430   -4.4830  -28.3880 C   0  0  0  0  0  0  0  0  0  0  0  0
  1  2  2  0
  1  6  1  0
  1  3  1  0
  2  4  1  0
  8  3  1  1
  4  5  2  0
  5  6  1  0
  6  7  1  0
  8  9  1  0
  8 13  1  0
  9 10  1  0
 10 14  2  0
 10 11  1  0
 11 12  1  0
 12 13  1  0
  7 15  1  0
M  END
>  <name>  (397) 
Car Nac Nd0 Car Nac Nac Cs3 C3r C3r C2r C3r O_a C3r .=O Cs3

>  <indices>  (397) 
[0, 1, 2]

>  <tasks>  (397) 
probe_placing close_aromatic_ring close_aromatic_ring close_aromatic_ring ring_built build_to_Nac build_to_Nd0 close_aliphatic_ring close_aliphatic_ring close_aliphatic_ring close_aliphatic_ring close_aliphatic_ring build_DB_to_Cs2

>  <prot_clashes>  (397) 
12

>  <NBS phar>  (397) 
0.24

>  <NBS_non-phar>  (397) 
0.4189371744791667

>  <NBS>  (397) 
0.6589371744791667

>  <source_stage>  (397) 
scored

>  <source_iter>  (397) 
12

>  <source_parent_mol>  (397) 
0

>  <source_scenario>  (397) 
1 2 3 1 0 7 4 4 5 0 1 0

>  <source_rank_in_scored_call>  (397) 
131

>  <source_current_task>  (397) 
no_task

>  <scenario>  (397) 
1 2 3 1 0 7 4 4 5 0 1

>  <protected_ring_attachments>  (397) 
3,1,0,2|1,0,2;4,5,0,2|5,0,2;9,8,7,2|8,7,2;11,12,7,2|12,7,2

>  <current_task>  (397) 
no_task

>  <rotatable_bond_torsions>  (397) 
1,0,2,7;0,2,7,8

$$$$

     RDKit          3D

 15 16  0  0  0  0  0  0  0  0999 V2000
  -27.4420   -6.9250  -30.7760 C   0  0  0  0  0  0  0  0  0  0  0  0
  -27.3850   -6.9410  -32.1380 N   0  0  0  0  0  0  0  0  0  0  0  0
  -26.7640   -8.0020  -29.9730 N   0  0  0  0  0  0  0  0  0  0  0  0
  -28.0360   -5.8580  -32.6020 C   0  0  0  0  0  0  0  0  0  0  0  0
  -28.4930   -5.1830  -31.5130 N   0  0  0  0  0  0  0  0  0  0  0  0
  -28.1330   -5.8290  -30.4160 N   0  0  0  0  0  0  0  0  0  0  0  0
  -28.1210   -5.4840  -28.9720 C   0  0  0  0  0  0  0  0  0  0  0  0
  -27.6150   -9.2850  -29.7320 C   0  0  2  0  0  0  0  0  0  0  0  0
  -28.9530   -9.0710  -30.4190 C   0  0  0  0  0  0  0  0  0  0  0  0
  -29.6200  -10.4130  -30.4430 C   0  0  0  0  0  0  0  0  0  0  0  0
  -29.7880  -10.8860  -29.0200 C   0  0  0  0  0  0  0  0  0  0  0  0
  -28.5580  -11.0070  -28.3840 O   0  0  0  0  0  0  0  0  0  0  0  0
  -27.8660   -9.8100  -28.3280 C   0  0  0  0  0  0  0  0  0  0  0  0
  -29.9330  -10.9750  -31.2820 O   0  0  0  0  0  0  0  0  0  0  0  0
  -29.4630   -5.8400  -28.3890 C   0  0  0  0  0  0  0  0  0  0  0  0
  1  2  2  0
  1  6  1  0
  1  3  1  0
  2  4  1  0
  8  3  1  1
  4  5  2  0
  5  6  1  0
  6  7  1  0
  8  9  1  0
  8 13  1  0
  9 10  1  0
 10 14  2  0
 10 11  1  0
 11 12  1  0
 12 13  1  0
  7 15  1  0
M  END
>  <name>  (398) 
Car Nac Nd0 Car Nac Nac Cs3 C3r C3r C2r C3r O_a C3r .=O Cs3

>  <indices>  (398) 
[0, 1, 2]

>  <tasks>  (398) 
probe_placing close_aromatic_ring close_aromatic_ring close_aromatic_ring ring_built build_to_Nac build_to_Nd0 close_aliphatic_ring close_aliphatic_ring close_aliphatic_ring close_aliphatic_ring close_aliphatic_ring build_DB_to_Cs2

>  <prot_clashes>  (398) 
12

>  <NBS phar>  (398) 
0.24

>  <NBS_non-phar>  (398) 
0.4157543182373047

>  <NBS>  (398) 
0.6557543182373047

>  <source_stage>  (398) 
scored

>  <source_iter>  (398) 
12

>  <source_parent_mol>  (398) 
0

>  <source_scenario>  (398) 
1 2 3 1 0 7 4 4 5 0 1 0

>  <source_rank_in_scored_call>  (398) 
132

>  <source_current_task>  (398) 
no_task

>  <scenario>  (398) 
1 2 3 1 0 7 4 4 5 0 1

>  <protected_ring_attachments>  (398) 
3,1,0,2|1,0,2;4,5,0,2|5,0,2;9,8,7,2|8,7,2;11,12,7,2|12,7,2

>  <current_task>  (398) 
no_task

>  <rotatable_bond_torsions>  (398) 
1,0,2,7;0,2,7,8

$$$$

     RDKit          3D

 12 13  0  0  0  0  0  0  0  0999 V2000
  -27.8330   -7.1320  -30.7080 C   0  0  0  0  0  0  0  0  0  0  0  0
  -27.3880   -6.9070  -31.9780 N   0  0  0  0  0  0  0  0  0  0  0  0
  -27.5800   -8.4530  -30.0360 N   0  0  0  0  0  0  0  0  0  0  0  0
  -27.7100   -5.6480  -32.3240 C   0  0  0  0  0  0  0  0  0  0  0  0
  -28.3580   -5.1050  -31.2560 N   0  0  0  0  0  0  0  0  0  0  0  0
  -28.4300   -6.0000  -30.2870 N   0  0  0  0  0  0  0  0  0  0  0  0
  -28.7840   -5.9380  -28.8450 C   0  0  0  0  0  0  0  0  0  0  0  0
  -28.4670   -9.4370  -30.2300 C   0  0  1  0  0  0  0  0  0  0  0  0
  -29.3220   -9.4010  -31.4470 C   0  0  0  0  0  0  0  0  0  0  0  0
  -29.2740  -10.6000  -32.0970 O   0  0  0  0  0  0  0  0  0  0  0  0
  -28.4460  -11.4730  -31.4500 C   0  0  0  0  0  0  0  0  0  0  0  0
  -28.0590  -10.8740  -30.1210 C   0  0  0  0  0  0  0  0  0  0  0  0
  1  2  2  0
  1  6  1  0
  1  3  1  0
  2  4  1  0
  8  3  1  6
  4  5  2  0
  5  6  1  0
  6  7  1  0
  8  9  1  0
  8 12  1  0
  9 10  1  0
 10 11  1  0
 11 12  1  0
M  END
>  <name>  (399) 
Car Nac Nd0 Car Nac Nac Cs3 C3r C3r O_a C3r C3r

>  <indices>  (399) 
[0, 1, 2]

>  <tasks>  (399) 
probe_placing close_aromatic_ring close_aromatic_ring close_aromatic_ring ring_built build_to_Nac build_to_Nd0 close_aliphatic_ring close_aliphatic_ring close_aliphatic_ring

>  <prot_clashes>  (399) 
8

>  <NBS phar>  (399) 
0.22000000000000003

>  <NBS_non-phar>  (399) 
0.30923720200856525

>  <NBS>  (399) 
0.5292372020085653

>  <source_stage>  (399) 
scored

>  <source_iter>  (399) 
9

>  <source_parent_mol>  (399) 
0

>  <source_scenario>  (399) 
1 2 3 1 0 7 4 5 0

>  <source_rank_in_scored_call>  (399) 
1

>  <source_current_task>  (399) 
close_aliphatic_ring

>  <scenario>  (399) 
1 2 3 1 0 7 4 5

>  <protected_ring_attachments>  (399) 
3,1,0,2|1,0,2;4,5,0,2|5,0,2

>  <current_task>  (399) 
no_task

>  <rotatable_bond_torsions>  (399) 
1,0,2,7;0,2,7,8;2,7,8,9;7,8,9,10

$$$$

     RDKit          3D

 13 14  0  0  0  0  0  0  0  0999 V2000
  -27.9650   -6.6060  -30.8370 C   0  0  0  0  0  0  0  0  0  0  0  0
  -27.3280   -6.6140  -32.0440 N   0  0  0  0  0  0  0  0  0  0  0  0
  -27.8110   -7.7620  -29.8880 N   0  0  0  0  0  0  0  0  0  0  0  0
  -27.6000   -5.4590  -32.6760 C   0  0  0  0  0  0  0  0  0  0  0  0
  -28.4120   -4.7440  -31.8470 N   0  0  0  0  0  0  0  0  0  0  0  0
  -28.6280   -5.4380  -30.7430 N   0  0  0  0  0  0  0  0  0  0  0  0
  -29.2050   -5.1120  -29.4130 C   0  0  0  0  0  0  0  0  0  0  0  0
  -28.6500   -8.7980  -30.0180 C   0  0  1  0  0  0  0  0  0  0  0  0
  -29.3030   -9.0300  -31.3340 C   0  0  0  0  0  0  0  0  0  0  0  0
  -29.1460  -10.3290  -31.7200 O   0  0  0  0  0  0  0  0  0  0  0  0
  -28.4230  -11.0290  -30.7960 C   0  0  0  0  0  0  0  0  0  0  0  0
  -28.2540  -10.1700  -29.5680 C   0  0  0  0  0  0  0  0  0  0  0  0
  -28.3500   -4.3230  -28.3830 C   0  0  0  0  0  0  0  0  0  0  0  0
  1  2  2  0
  1  6  1  0
  1  3  1  0
  2  4  1  0
  8  3  1  6
  4  5  2  0
  5  6  1  0
  6  7  1  0
  8  9  1  0
  8 12  1  0
  9 10  1  0
 10 11  1  0
 11 12  1  0
  7 13  1  0
M  END
>  <name>  (400) 
Car Nac Nd0 Car Nac Nac Cs3 C3r C3r O_a C3r C3r Cs3

>  <indices>  (400) 
[0, 1, 2]

>  <tasks>  (400) 
probe_placing close_aromatic_ring close_aromatic_ring close_aromatic_ring ring_built build_to_Nac build_to_Nd0 close_aliphatic_ring close_aliphatic_ring close_aliphatic_ring close_aliphatic_ring

>  <prot_clashes>  (400) 
12

>  <NBS phar>  (400) 
0.22000000000000003

>  <NBS_non-phar>  (400) 
0.4402009890629695

>  <NBS>  (400) 
0.6602009890629695

>  <source_stage>  (400) 
scored

>  <source_iter>  (400) 
10

>  <source_parent_mol>  (400) 
1

>  <source_scenario>  (400) 
1 2 3 1 0 7 4 5 0 1

>  <source_rank_in_scored_call>  (400) 
13

>  <source_current_task>  (400) 
no_task

>  <scenario>  (400) 
1 2 3 1 0 7 4 5 0

>  <protected_ring_attachments>  (400) 
3,1,0,2|1,0,2;4,5,0,2|5,0,2;9,8,7,2|8,7,2;10,11,7,2|11,7,2

>  <current_task>  (400) 
no_task

>  <rotatable_bond_torsions>  (400) 
1,0,2,7;0,2,7,8

$$$$

     RDKit          3D

 13 14  0  0  0  0  0  0  0  0999 V2000
  -27.9360   -6.7220  -30.7740 C   0  0  0  0  0  0  0  0  0  0  0  0
  -27.3150   -6.6210  -31.9840 N   0  0  0  0  0  0  0  0  0  0  0  0
  -27.7710   -7.9580  -29.9340 N   0  0  0  0  0  0  0  0  0  0  0  0
  -27.5950   -5.4140  -32.5060 C   0  0  0  0  0  0  0  0  0  0  0  0
  -28.3960   -4.7780  -31.6060 N   0  0  0  0  0  0  0  0  0  0  0  0
  -28.5980   -5.5680  -30.5670 N   0  0  0  0  0  0  0  0  0  0  0  0
  -29.1580   -5.3630  -29.2050 C   0  0  0  0  0  0  0  0  0  0  0  0
  -28.6110   -8.9790  -30.1450 C   0  0  1  0  0  0  0  0  0  0  0  0
  -29.2810   -9.0930  -31.4680 C   0  0  0  0  0  0  0  0  0  0  0  0
  -29.1280  -10.3520  -31.9720 O   0  0  0  0  0  0  0  0  0  0  0  0
  -28.3940  -11.1310  -31.1230 C   0  0  0  0  0  0  0  0  0  0  0  0
  -28.2090  -10.3860  -29.8250 C   0  0  0  0  0  0  0  0  0  0  0  0
  -28.6430   -4.0700  -28.4670 C   0  0  0  0  0  0  0  0  0  0  0  0
  1  2  2  0
  1  6  1  0
  1  3  1  0
  2  4  1  0
  8  3  1  6
  4  5  2  0
  5  6  1  0
  6  7  1  0
  8  9  1  0
  8 12  1  0
  9 10  1  0
 10 11  1  0
 11 12  1  0
  7 13  1  0
M  END
>  <name>  (401) 
Car Nac Nd0 Car Nac Nac Cs3 C3r C3r O_a C3r C3r Cs3

>  <indices>  (401) 
[0, 1, 2]

>  <tasks>  (401) 
probe_placing close_aromatic_ring close_aromatic_ring close_aromatic_ring ring_built build_to_Nac build_to_Nd0 close_aliphatic_ring close_aliphatic_ring close_aliphatic_ring close_aliphatic_ring

>  <prot_clashes>  (401) 
7

>  <NBS phar>  (401) 
0.22000000000000003

>  <NBS_non-phar>  (401) 
0.3658064328707181

>  <NBS>  (401) 
0.5858064328707182

>  <source_stage>  (401) 
scored

>  <source_iter>  (401) 
10

>  <source_parent_mol>  (401) 
1

>  <source_scenario>  (401) 
1 2 3 1 0 7 4 5 0 1

>  <source_rank_in_scored_call>  (401) 
24

>  <source_current_task>  (401) 
no_task

>  <scenario>  (401) 
1 2 3 1 0 7 4 5 0

>  <protected_ring_attachments>  (401) 
3,1,0,2|1,0,2;4,5,0,2|5,0,2;9,8,7,2|8,7,2;10,11,7,2|11,7,2

>  <current_task>  (401) 
no_task

>  <rotatable_bond_torsions>  (401) 
1,0,2,7;0,2,7,8

$$$$

     RDKit          3D

 13 14  0  0  0  0  0  0  0  0999 V2000
  -27.6210   -6.9760  -30.9100 C   0  0  0  0  0  0  0  0  0  0  0  0
  -27.4020   -6.7590  -32.2400 N   0  0  0  0  0  0  0  0  0  0  0  0
  -27.3530   -8.3260  -30.3050 N   0  0  0  0  0  0  0  0  0  0  0  0
  -27.6820   -5.4720  -32.5120 C   0  0  0  0  0  0  0  0  0  0  0  0
  -28.0750   -4.9030  -31.3380 N   0  0  0  0  0  0  0  0  0  0  0  0
  -28.0370   -5.8100  -30.3780 N   0  0  0  0  0  0  0  0  0  0  0  0
  -28.1110   -5.7510  -28.8950 C   0  0  0  0  0  0  0  0  0  0  0  0
  -28.3360   -9.2340  -30.3360 C   0  0  1  0  0  0  0  0  0  0  0  0
  -29.3970   -9.1070  -31.3720 C   0  0  0  0  0  0  0  0  0  0  0  0
  -29.5660  -10.2920  -32.0270 O   0  0  0  0  0  0  0  0  0  0  0  0
  -28.7040  -11.2400  -31.5510 C   0  0  0  0  0  0  0  0  0  0  0  0
  -28.0310  -10.7000  -30.3140 C   0  0  0  0  0  0  0  0  0  0  0  0
  -29.5970   -5.4340  -28.5490 C   0  0  0  0  0  0  0  0  0  0  0  0
  1  2  2  0
  1  6  1  0
  1  3  1  0
  2  4  1  0
  8  3  1  6
  4  5  2  0
  5  6  1  0
  6  7  1  0
  8  9  1  0
  8 12  1  0
  9 10  1  0
 10 11  1  0
 11 12  1  0
  7 13  1  0
M  END
>  <name>  (402) 
Car Nac Nd0 Car Nac Nac Cs3 C3r C3r O_a C3r C3r Cs3

>  <indices>  (402) 
[0, 1, 2]

>  <tasks>  (402) 
probe_placing close_aromatic_ring close_aromatic_ring close_aromatic_ring ring_built build_to_Nac build_to_Nd0 close_aliphatic_ring close_aliphatic_ring close_aliphatic_ring close_aliphatic_ring

>  <prot_clashes>  (402) 
12

>  <NBS phar>  (402) 
0.22000000000000003

>  <NBS_non-phar>  (402) 
0.34279628900381237

>  <NBS>  (402) 
0.5627962890038124

>  <source_stage>  (402) 
scored

>  <source_iter>  (402) 
10

>  <source_parent_mol>  (402) 
1

>  <source_scenario>  (402) 
1 2 3 1 0 7 4 5 0 1

>  <source_rank_in_scored_call>  (402) 
33

>  <source_current_task>  (402) 
no_task

>  <scenario>  (402) 
1 2 3 1 0 7 4 5 0

>  <protected_ring_attachments>  (402) 
3,1,0,2|1,0,2;4,5,0,2|5,0,2;9,8,7,2|8,7,2;10,11,7,2|11,7,2

>  <current_task>  (402) 
no_task

>  <rotatable_bond_torsions>  (402) 
1,0,2,7;0,2,7,8

$$$$

     RDKit          3D

 13 14  0  0  0  0  0  0  0  0999 V2000
  -27.7720   -7.1170  -30.7530 C   0  0  0  0  0  0  0  0  0  0  0  0
  -27.4200   -6.8600  -32.0460 N   0  0  0  0  0  0  0  0  0  0  0  0
  -27.5080   -8.4670  -30.1460 N   0  0  0  0  0  0  0  0  0  0  0  0
  -27.7300   -5.5820  -32.3250 C   0  0  0  0  0  0  0  0  0  0  0  0
  -28.2780   -5.0590  -31.1920 N   0  0  0  0  0  0  0  0  0  0  0  0
  -28.3020   -5.9840  -30.2500 N   0  0  0  0  0  0  0  0  0  0  0  0
  -28.5420   -5.9630  -28.7840 C   0  0  0  0  0  0  0  0  0  0  0  0
  -28.4360   -9.4190  -30.3020 C   0  0  1  0  0  0  0  0  0  0  0  0
  -29.3800   -9.3180  -31.4470 C   0  0  0  0  0  0  0  0  0  0  0  0
  -29.4180  -10.4950  -32.1380 O   0  0  0  0  0  0  0  0  0  0  0  0
  -28.5690  -11.4120  -31.5850 C   0  0  0  0  0  0  0  0  0  0  0  0
  -28.0630  -10.8700  -30.2720 C   0  0  0  0  0  0  0  0  0  0  0  0
  -29.5620   -4.9150  -28.3900 C   0  0  0  0  0  0  0  0  0  0  0  0
  1  2  2  0
  1  6  1  0
  1  3  1  0
  2  4  1  0
  8  3  1  6
  4  5  2  0
  5  6  1  0
  6  7  1  0
  8  9  1  0
  8 12  1  0
  9 10  1  0
 10 11  1  0
 11 12  1  0
  7 13  1  0
M  END
>  <name>  (403) 
Car Nac Nd0 Car Nac Nac Cs3 C3r C3r O_a C3r C3r Cs3

>  <indices>  (403) 
[0, 1, 2]

>  <tasks>  (403) 
probe_placing close_aromatic_ring close_aromatic_ring close_aromatic_ring ring_built build_to_Nac build_to_Nd0 close_aliphatic_ring close_aliphatic_ring close_aliphatic_ring close_aliphatic_ring

>  <prot_clashes>  (403) 
10

>  <NBS phar>  (403) 
0.2

>  <NBS_non-phar>  (403) 
0.36008427693293643

>  <NBS>  (403) 
0.5600842769329364

>  <source_stage>  (403) 
scored

>  <source_iter>  (403) 
10

>  <source_parent_mol>  (403) 
1

>  <source_scenario>  (403) 
1 2 3 1 0 7 4 5 0 1

>  <source_rank_in_scored_call>  (403) 
35

>  <source_current_task>  (403) 
no_task

>  <scenario>  (403) 
1 2 3 1 0 7 4 5 0

>  <protected_ring_attachments>  (403) 
3,1,0,2|1,0,2;4,5,0,2|5,0,2;9,8,7,2|8,7,2;10,11,7,2|11,7,2

>  <current_task>  (403) 
no_task

>  <rotatable_bond_torsions>  (403) 
1,0,2,7;0,2,7,8

$$$$

     RDKit          3D

 13 14  0  0  0  0  0  0  0  0999 V2000
  -27.9000   -6.9950  -30.8330 C   0  0  0  0  0  0  0  0  0  0  0  0
  -27.3700   -6.8230  -32.0780 N   0  0  0  0  0  0  0  0  0  0  0  0
  -27.6630   -8.2720  -30.0750 N   0  0  0  0  0  0  0  0  0  0  0  0
  -27.6970   -5.5940  -32.5130 C   0  0  0  0  0  0  0  0  0  0  0  0
  -28.4350   -5.0150  -31.5250 N   0  0  0  0  0  0  0  0  0  0  0  0
  -28.5540   -5.8610  -30.5170 N   0  0  0  0  0  0  0  0  0  0  0  0
  -29.0130   -5.7340  -29.1090 C   0  0  0  0  0  0  0  0  0  0  0  0
  -28.5080   -9.2900  -30.2780 C   0  0  1  0  0  0  0  0  0  0  0  0
  -29.2730   -9.3410  -31.5530 C   0  0  0  0  0  0  0  0  0  0  0  0
  -29.1480  -10.5700  -32.1330 O   0  0  0  0  0  0  0  0  0  0  0  0
  -28.3480  -11.3840  -31.3830 C   0  0  0  0  0  0  0  0  0  0  0  0
  -28.0730  -10.7070  -30.0630 C   0  0  0  0  0  0  0  0  0  0  0  0
  -29.0310   -4.1790  -28.7620 C   0  0  0  0  0  0  0  0  0  0  0  0
  1  2  2  0
  1  6  1  0
  1  3  1  0
  2  4  1  0
  8  3  1  6
  4  5  2  0
  5  6  1  0
  6  7  1  0
  8  9  1  0
  8 12  1  0
  9 10  1  0
 10 11  1  0
 11 12  1  0
  7 13  1  0
M  END
>  <name>  (404) 
Car Nac Nd0 Car Nac Nac Cs3 C3r C3r O_a C3r C3r Cs3

>  <indices>  (404) 
[0, 1, 2]

>  <tasks>  (404) 
probe_placing close_aromatic_ring close_aromatic_ring close_aromatic_ring ring_built build_to_Nac build_to_Nd0 close_aliphatic_ring close_aliphatic_ring close_aliphatic_ring close_aliphatic_ring

>  <prot_clashes>  (404) 
9

>  <NBS phar>  (404) 
0.26000000000000006

>  <NBS_non-phar>  (404) 
0.29933531467731184

>  <NBS>  (404) 
0.5593353146773119

>  <source_stage>  (404) 
scored

>  <source_iter>  (404) 
10

>  <source_parent_mol>  (404) 
1

>  <source_scenario>  (404) 
1 2 3 1 0 7 4 5 0 1

>  <source_rank_in_scored_call>  (404) 
36

>  <source_current_task>  (404) 
no_task

>  <scenario>  (404) 
1 2 3 1 0 7 4 5 0

>  <protected_ring_attachments>  (404) 
3,1,0,2|1,0,2;4,5,0,2|5,0,2;9,8,7,2|8,7,2;10,11,7,2|11,7,2

>  <current_task>  (404) 
no_task

>  <rotatable_bond_torsions>  (404) 
1,0,2,7;0,2,7,8

$$$$

     RDKit          3D

 13 14  0  0  0  0  0  0  0  0999 V2000
  -27.9160   -6.8430  -30.8140 C   0  0  0  0  0  0  0  0  0  0  0  0
  -27.3080   -6.6810  -32.0250 N   0  0  0  0  0  0  0  0  0  0  0  0
  -27.7020   -8.0990  -30.0170 N   0  0  0  0  0  0  0  0  0  0  0  0
  -27.6340   -5.4680  -32.5050 C   0  0  0  0  0  0  0  0  0  0  0  0
  -28.4480   -4.8890  -31.5780 N   0  0  0  0  0  0  0  0  0  0  0  0
  -28.6150   -5.7180  -30.5640 N   0  0  0  0  0  0  0  0  0  0  0  0
  -29.1700   -5.5780  -29.1920 C   0  0  0  0  0  0  0  0  0  0  0  0
  -28.5090   -9.1410  -30.2550 C   0  0  1  0  0  0  0  0  0  0  0  0
  -29.1860   -9.2340  -31.5770 C   0  0  0  0  0  0  0  0  0  0  0  0
  -28.9950  -10.4700  -32.1230 O   0  0  0  0  0  0  0  0  0  0  0  0
  -28.2280  -11.2510  -31.3050 C   0  0  0  0  0  0  0  0  0  0  0  0
  -28.0570  -10.5430  -29.9850 C   0  0  0  0  0  0  0  0  0  0  0  0
  -29.0040   -4.1110  -28.5030 C   0  0  0  0  0  0  0  0  0  0  0  0
  1  2  2  0
  1  6  1  0
  1  3  1  0
  2  4  1  0
  8  3  1  6
  4  5  2  0
  5  6  1  0
  6  7  1  0
  8  9  1  0
  8 12  1  0
  9 10  1  0
 10 11  1  0
 11 12  1  0
  7 13  1  0
M  END
>  <name>  (405) 
Car Nac Nd0 Car Nac Nac Cs3 C3r C3r O_a C3r C3r Cs3

>  <indices>  (405) 
[0, 1, 2]

>  <tasks>  (405) 
probe_placing close_aromatic_ring close_aromatic_ring close_aromatic_ring ring_built build_to_Nac build_to_Nd0 close_aliphatic_ring close_aliphatic_ring close_aliphatic_ring close_aliphatic_ring

>  <prot_clashes>  (405) 
11

>  <NBS phar>  (405) 
0.24000000000000005

>  <NBS_non-phar>  (405) 
0.30994598682110125

>  <NBS>  (405) 
0.5499459868211013

>  <source_stage>  (405) 
scored

>  <source_iter>  (405) 
10

>  <source_parent_mol>  (405) 
1

>  <source_scenario>  (405) 
1 2 3 1 0 7 4 5 0 1

>  <source_rank_in_scored_call>  (405) 
40

>  <source_current_task>  (405) 
no_task

>  <scenario>  (405) 
1 2 3 1 0 7 4 5 0

>  <protected_ring_attachments>  (405) 
3,1,0,2|1,0,2;4,5,0,2|5,0,2;9,8,7,2|8,7,2;10,11,7,2|11,7,2

>  <current_task>  (405) 
no_task

>  <rotatable_bond_torsions>  (405) 
1,0,2,7;0,2,7,8

$$$$

     RDKit          3D

 13 14  0  0  0  0  0  0  0  0999 V2000
  -27.8680   -7.0000  -30.8310 C   0  0  0  0  0  0  0  0  0  0  0  0
  -27.3510   -6.8250  -32.0810 N   0  0  0  0  0  0  0  0  0  0  0  0
  -27.6290   -8.2810  -30.0810 N   0  0  0  0  0  0  0  0  0  0  0  0
  -27.6770   -5.5910  -32.5060 C   0  0  0  0  0  0  0  0  0  0  0  0
  -28.4000   -5.0140  -31.5070 N   0  0  0  0  0  0  0  0  0  0  0  0
  -28.5130   -5.8640  -30.5020 N   0  0  0  0  0  0  0  0  0  0  0  0
  -28.9560   -5.7420  -29.0880 C   0  0  0  0  0  0  0  0  0  0  0  0
  -28.4810   -9.2940  -30.2800 C   0  0  1  0  0  0  0  0  0  0  0  0
  -29.2610   -9.3360  -31.5470 C   0  0  0  0  0  0  0  0  0  0  0  0
  -29.1480  -10.5630  -32.1330 O   0  0  0  0  0  0  0  0  0  0  0  0
  -28.3430  -11.3850  -31.3960 C   0  0  0  0  0  0  0  0  0  0  0  0
  -28.0510  -10.7140  -30.0770 C   0  0  0  0  0  0  0  0  0  0  0  0
  -29.1720   -4.2910  -28.6470 C   0  0  0  0  0  0  0  0  0  0  0  0
  1  2  2  0
  1  6  1  0
  1  3  1  0
  2  4  1  0
  8  3  1  6
  4  5  2  0
  5  6  1  0
  6  7  1  0
  8  9  1  0
  8 12  1  0
  9 10  1  0
 10 11  1  0
 11 12  1  0
  7 13  1  0
M  END
>  <name>  (406) 
Car Nac Nd0 Car Nac Nac Cs3 C3r C3r O_a C3r C3r Cs3

>  <indices>  (406) 
[0, 1, 2]

>  <tasks>  (406) 
probe_placing close_aromatic_ring close_aromatic_ring close_aromatic_ring ring_built build_to_Nac build_to_Nd0 close_aliphatic_ring close_aliphatic_ring close_aliphatic_ring close_aliphatic_ring

>  <prot_clashes>  (406) 
9

>  <NBS phar>  (406) 
0.26000000000000006

>  <NBS_non-phar>  (406) 
0.2679106638981746

>  <NBS>  (406) 
0.5279106638981746

>  <source_stage>  (406) 
scored

>  <source_iter>  (406) 
10

>  <source_parent_mol>  (406) 
1

>  <source_scenario>  (406) 
1 2 3 1 0 7 4 5 0 1

>  <source_rank_in_scored_call>  (406) 
60

>  <source_current_task>  (406) 
no_task

>  <scenario>  (406) 
1 2 3 1 0 7 4 5 0

>  <protected_ring_attachments>  (406) 
3,1,0,2|1,0,2;4,5,0,2|5,0,2;9,8,7,2|8,7,2;10,11,7,2|11,7,2

>  <current_task>  (406) 
no_task

>  <rotatable_bond_torsions>  (406) 
1,0,2,7;0,2,7,8

$$$$

     RDKit          3D

 13 14  0  0  0  0  0  0  0  0999 V2000
  -27.8080   -7.1770  -30.8540 C   0  0  0  0  0  0  0  0  0  0  0  0
  -27.4080   -6.9770  -32.1420 N   0  0  0  0  0  0  0  0  0  0  0  0
  -27.5460   -8.4910  -30.1710 N   0  0  0  0  0  0  0  0  0  0  0  0
  -27.7280   -5.7190  -32.4960 C   0  0  0  0  0  0  0  0  0  0  0  0
  -28.3300   -5.1530  -31.4130 N   0  0  0  0  0  0  0  0  0  0  0  0
  -28.3760   -6.0320  -30.4280 N   0  0  0  0  0  0  0  0  0  0  0  0
  -28.6760   -5.9450  -28.9750 C   0  0  0  0  0  0  0  0  0  0  0  0
  -28.4500   -9.4670  -30.3180 C   0  0  1  0  0  0  0  0  0  0  0  0
  -29.3490   -9.4390  -31.5030 C   0  0  0  0  0  0  0  0  0  0  0  0
  -29.3390  -10.6480  -32.1360 O   0  0  0  0  0  0  0  0  0  0  0  0
  -28.4980  -11.5210  -31.5060 C   0  0  0  0  0  0  0  0  0  0  0  0
  -28.0550  -10.9070  -30.2020 C   0  0  0  0  0  0  0  0  0  0  0  0
  -28.4640   -7.1750  -28.0900 C   0  0  0  0  0  0  0  0  0  0  0  0
  1  2  2  0
  1  6  1  0
  1  3  1  0
  2  4  1  0
  8  3  1  6
  4  5  2  0
  5  6  1  0
  6  7  1  0
  8  9  1  0
  8 12  1  0
  9 10  1  0
 10 11  1  0
 11 12  1  0
  7 13  1  0
M  END
>  <name>  (407) 
Car Nac Nd0 Car Nac Nac Cs3 C3r C3r O_a C3r C3r Cs3

>  <indices>  (407) 
[0, 1, 2]

>  <tasks>  (407) 
probe_placing close_aromatic_ring close_aromatic_ring close_aromatic_ring ring_built build_to_Nac build_to_Nd0 close_aliphatic_ring close_aliphatic_ring close_aliphatic_ring close_aliphatic_ring

>  <prot_clashes>  (407) 
11

>  <NBS phar>  (407) 
0.22000000000000003

>  <NBS_non-phar>  (407) 
0.29518842697143555

>  <NBS>  (407) 
0.5151884269714355

>  <source_stage>  (407) 
scored

>  <source_iter>  (407) 
10

>  <source_parent_mol>  (407) 
1

>  <source_scenario>  (407) 
1 2 3 1 0 7 4 5 0 1

>  <source_rank_in_scored_call>  (407) 
67

>  <source_current_task>  (407) 
no_task

>  <scenario>  (407) 
1 2 3 1 0 7 4 5 0

>  <protected_ring_attachments>  (407) 
3,1,0,2|1,0,2;4,5,0,2|5,0,2;9,8,7,2|8,7,2;10,11,7,2|11,7,2

>  <current_task>  (407) 
no_task

>  <rotatable_bond_torsions>  (407) 
1,0,2,7;0,2,7,8

$$$$

     RDKit          3D

 13 14  0  0  0  0  0  0  0  0999 V2000
  -27.8670   -7.2030  -30.8500 C   0  0  0  0  0  0  0  0  0  0  0  0
  -27.4720   -6.9900  -32.1380 N   0  0  0  0  0  0  0  0  0  0  0  0
  -27.5800   -8.5150  -30.1740 N   0  0  0  0  0  0  0  0  0  0  0  0
  -27.8150   -5.7370  -32.4850 C   0  0  0  0  0  0  0  0  0  0  0  0
  -28.4250   -5.1860  -31.3990 N   0  0  0  0  0  0  0  0  0  0  0  0
  -28.4540   -6.0700  -30.4180 N   0  0  0  0  0  0  0  0  0  0  0  0
  -28.7530   -5.9940  -28.9650 C   0  0  0  0  0  0  0  0  0  0  0  0
  -28.4670   -9.5070  -30.3230 C   0  0  1  0  0  0  0  0  0  0  0  0
  -29.3690   -9.4890  -31.5060 C   0  0  0  0  0  0  0  0  0  0  0  0
  -29.3380  -10.6950  -32.1440 O   0  0  0  0  0  0  0  0  0  0  0  0
  -28.4810  -11.5560  -31.5200 C   0  0  0  0  0  0  0  0  0  0  0  0
  -28.0470  -10.9400  -30.2140 C   0  0  0  0  0  0  0  0  0  0  0  0
  -27.7880   -6.7560  -28.1110 C   0  0  0  0  0  0  0  0  0  0  0  0
  1  2  2  0
  1  6  1  0
  1  3  1  0
  2  4  1  0
  8  3  1  6
  4  5  2  0
  5  6  1  0
  6  7  1  0
  8  9  1  0
  8 12  1  0
  9 10  1  0
 10 11  1  0
 11 12  1  0
  7 13  1  0
M  END
>  <name>  (408) 
Car Nac Nd0 Car Nac Nac Cs3 C3r C3r O_a C3r C3r Cs3

>  <indices>  (408) 
[0, 1, 2]

>  <tasks>  (408) 
probe_placing close_aromatic_ring close_aromatic_ring close_aromatic_ring ring_built build_to_Nac build_to_Nd0 close_aliphatic_ring close_aliphatic_ring close_aliphatic_ring close_aliphatic_ring

>  <prot_clashes>  (408) 
12

>  <NBS phar>  (408) 
0.22000000000000003

>  <NBS_non-phar>  (408) 
0.27215180030235875

>  <NBS>  (408) 
0.4921518003023588

>  <source_stage>  (408) 
scored

>  <source_iter>  (408) 
10

>  <source_parent_mol>  (408) 
1

>  <source_scenario>  (408) 
1 2 3 1 0 7 4 5 0 1

>  <source_rank_in_scored_call>  (408) 
75

>  <source_current_task>  (408) 
no_task

>  <scenario>  (408) 
1 2 3 1 0 7 4 5 0

>  <protected_ring_attachments>  (408) 
3,1,0,2|1,0,2;4,5,0,2|5,0,2;9,8,7,2|8,7,2;10,11,7,2|11,7,2

>  <current_task>  (408) 
no_task

>  <rotatable_bond_torsions>  (408) 
1,0,2,7;0,2,7,8

$$$$

     RDKit          3D

 13 14  0  0  0  0  0  0  0  0999 V2000
  -27.6200   -6.9160  -30.8580 C   0  0  0  0  0  0  0  0  0  0  0  0
  -27.4080   -6.7540  -32.1960 N   0  0  0  0  0  0  0  0  0  0  0  0
  -27.3500   -8.2410  -30.2000 N   0  0  0  0  0  0  0  0  0  0  0  0
  -27.6880   -5.4790  -32.5190 C   0  0  0  0  0  0  0  0  0  0  0  0
  -28.0750   -4.8620  -31.3680 N   0  0  0  0  0  0  0  0  0  0  0  0
  -28.0340   -5.7290  -30.3720 N   0  0  0  0  0  0  0  0  0  0  0  0
  -28.1010   -5.6100  -28.8920 C   0  0  0  0  0  0  0  0  0  0  0  0
  -28.3340   -9.1490  -30.1900 C   0  0  1  0  0  0  0  0  0  0  0  0
  -29.3990   -9.0630  -31.2250 C   0  0  0  0  0  0  0  0  0  0  0  0
  -29.5710  -10.2740  -31.8310 O   0  0  0  0  0  0  0  0  0  0  0  0
  -28.7080  -11.2020  -31.3210 C   0  0  0  0  0  0  0  0  0  0  0  0
  -28.0290  -10.6130  -30.1090 C   0  0  0  0  0  0  0  0  0  0  0  0
  -29.4920   -6.0400  -28.4930 C   0  0  0  0  0  0  0  0  0  0  0  0
  1  2  2  0
  1  6  1  0
  1  3  1  0
  2  4  1  0
  8  3  1  6
  4  5  2  0
  5  6  1  0
  6  7  1  0
  8  9  1  0
  8 12  1  0
  9 10  1  0
 10 11  1  0
 11 12  1  0
  7 13  1  0
M  END
>  <name>  (409) 
Car Nac Nd0 Car Nac Nac Cs3 C3r C3r O_a C3r C3r Cs3

>  <indices>  (409) 
[0, 1, 2]

>  <tasks>  (409) 
probe_placing close_aromatic_ring close_aromatic_ring close_aromatic_ring ring_built build_to_Nac build_to_Nd0 close_aliphatic_ring close_aliphatic_ring close_aliphatic_ring close_aliphatic_ring

>  <prot_clashes>  (409) 
11

>  <NBS phar>  (409) 
0.12

>  <NBS_non-phar>  (409) 
0.353239499605619

>  <NBS>  (409) 
0.473239499605619

>  <source_stage>  (409) 
scored

>  <source_iter>  (409) 
10

>  <source_parent_mol>  (409) 
1

>  <source_scenario>  (409) 
1 2 3 1 0 7 4 5 0 1

>  <source_rank_in_scored_call>  (409) 
85

>  <source_current_task>  (409) 
no_task

>  <scenario>  (409) 
1 2 3 1 0 7 4 5 0

>  <protected_ring_attachments>  (409) 
3,1,0,2|1,0,2;4,5,0,2|5,0,2;9,8,7,2|8,7,2;10,11,7,2|11,7,2

>  <current_task>  (409) 
no_task

>  <rotatable_bond_torsions>  (409) 
1,0,2,7;0,2,7,8

$$$$

     RDKit          3D

 14 15  0  0  0  0  0  0  0  0999 V2000
  -27.7050   -6.9120  -30.6890 C   0  0  0  0  0  0  0  0  0  0  0  0
  -27.4680   -6.8270  -32.0300 N   0  0  0  0  0  0  0  0  0  0  0  0
  -27.2040   -8.0890  -29.9000 N   0  0  0  0  0  0  0  0  0  0  0  0
  -27.9870   -5.6720  -32.4820 C   0  0  0  0  0  0  0  0  0  0  0  0
  -28.5450   -5.0500  -31.4060 N   0  0  0  0  0  0  0  0  0  0  0  0
  -28.3740   -5.8000  -30.3310 N   0  0  0  0  0  0  0  0  0  0  0  0
  -28.5350   -5.5680  -28.8730 C   0  0  0  0  0  0  0  0  0  0  0  0
  -28.7070   -9.1580  -29.5770 C   0  0  1  0  0  0  0  0  0  0  0  0
  -28.5660   -9.5140  -31.0230 C   0  0  0  0  0  0  0  0  0  0  0  0
  -29.2330  -10.8190  -31.2930 C   0  0  0  0  0  0  0  0  0  0  0  0
  -28.5860  -11.8900  -30.4540 C   0  0  0  0  0  0  0  0  0  0  0  0
  -28.7400  -11.5260  -28.9760 C   0  0  0  0  0  0  0  0  0  0  0  0
  -28.0660  -10.1970  -28.7240 C   0  0  0  0  0  0  0  0  0  0  0  0
  -29.9350  -11.1010  -32.1370 O   0  0  0  0  0  0  0  0  0  0  0  0
  1  2  2  0
  1  6  1  0
  1  3  1  0
  2  4  1  0
  8  3  1  6
  4  5  2  0
  5  6  1  0
  6  7  1  0
  8  9  1  0
  8 13  1  0
  9 10  1  0
 10 14  2  0
 10 11  1  0
 11 12  1  0
 12 13  1  0
M  END
>  <name>  (410) 
Car Nac Nd0 Car Nac Nac Cs3 C3r C3r C2r C3r C3r C3r .=O

>  <indices>  (410) 
[0, 1, 2]

>  <tasks>  (410) 
probe_placing close_aromatic_ring close_aromatic_ring close_aromatic_ring ring_built build_to_Nac build_to_Nd0 close_aliphatic_ring close_aliphatic_ring close_aliphatic_ring close_aliphatic_ring close_aliphatic_ring

>  <prot_clashes>  (410) 
2

>  <NBS phar>  (410) 
0.22000000000000003

>  <NBS_non-phar>  (410) 
0.5134417329515729

>  <NBS>  (410) 
0.733441732951573

>  <source_stage>  (410) 
scored

>  <source_iter>  (410) 
11

>  <source_parent_mol>  (410) 
1

>  <source_scenario>  (410) 
1 2 3 1 0 7 4 7 2 2 1

>  <source_rank_in_scored_call>  (410) 
0

>  <source_current_task>  (410) 
build_DB_to_Cs2

>  <scenario>  (410) 
1 2 3 1 0 7 4 7 2 2

>  <protected_ring_attachments>  (410) 
3,1,0,2|1,0,2;4,5,0,2|5,0,2;9,8,7,2|8,7,2;11,12,7,2|12,7,2

>  <current_task>  (410) 
no_task

>  <rotatable_bond_torsions>  (410) 
1,0,2,7;0,2,7,8

$$$$

     RDKit          3D

 14 15  0  0  0  0  0  0  0  0999 V2000
  -27.7350   -6.9590  -30.7270 C   0  0  0  0  0  0  0  0  0  0  0  0
  -27.4690   -6.8550  -32.0610 N   0  0  0  0  0  0  0  0  0  0  0  0
  -27.2250   -8.1330  -29.9390 N   0  0  0  0  0  0  0  0  0  0  0  0
  -28.0050   -5.7070  -32.5130 C   0  0  0  0  0  0  0  0  0  0  0  0
  -28.6030   -5.1100  -31.4440 N   0  0  0  0  0  0  0  0  0  0  0  0
  -28.4380   -5.8670  -30.3740 N   0  0  0  0  0  0  0  0  0  0  0  0
  -28.6380   -5.6550  -28.9170 C   0  0  0  0  0  0  0  0  0  0  0  0
  -28.7100   -9.2400  -29.6620 C   0  0  1  0  0  0  0  0  0  0  0  0
  -28.5280   -9.5770  -31.1070 C   0  0  0  0  0  0  0  0  0  0  0  0
  -29.1570  -10.8940  -31.4070 C   0  0  0  0  0  0  0  0  0  0  0  0
  -28.5050  -11.9590  -30.5640 C   0  0  0  0  0  0  0  0  0  0  0  0
  -28.7010  -11.6140  -29.0860 C   0  0  0  0  0  0  0  0  0  0  0  0
  -28.0640  -10.2740  -28.8050 C   0  0  0  0  0  0  0  0  0  0  0  0
  -29.9380  -11.1060  -32.0990 O   0  0  0  0  0  0  0  0  0  0  0  0
  1  2  2  0
  1  6  1  0
  1  3  1  0
  2  4  1  0
  8  3  1  6
  4  5  2  0
  5  6  1  0
  6  7  1  0
  8  9  1  0
  8 13  1  0
  9 10  1  0
 10 14  2  0
 10 11  1  0
 11 12  1  0
 12 13  1  0
M  END
>  <name>  (411) 
Car Nac Nd0 Car Nac Nac Cs3 C3r C3r C2r C3r C3r C3r .=O

>  <indices>  (411) 
[0, 1, 2]

>  <tasks>  (411) 
probe_placing close_aromatic_ring close_aromatic_ring close_aromatic_ring ring_built build_to_Nac build_to_Nd0 close_aliphatic_ring close_aliphatic_ring close_aliphatic_ring close_aliphatic_ring close_aliphatic_ring

>  <prot_clashes>  (411) 
2

>  <NBS phar>  (411) 
0.22000000000000003

>  <NBS_non-phar>  (411) 
0.43030507223946707

>  <NBS>  (411) 
0.6503050722394671

>  <source_stage>  (411) 
scored

>  <source_iter>  (411) 
11

>  <source_parent_mol>  (411) 
1

>  <source_scenario>  (411) 
1 2 3 1 0 7 4 7 2 2 1

>  <source_rank_in_scored_call>  (411) 
2

>  <source_current_task>  (411) 
build_DB_to_Cs2

>  <scenario>  (411) 
1 2 3 1 0 7 4 7 2 2

>  <protected_ring_attachments>  (411) 
3,1,0,2|1,0,2;4,5,0,2|5,0,2;9,8,7,2|8,7,2;11,12,7,2|12,7,2

>  <current_task>  (411) 
no_task

>  <rotatable_bond_torsions>  (411) 
1,0,2,7;0,2,7,8

$$$$

     RDKit          3D

 14 15  0  0  0  0  0  0  0  0999 V2000
  -27.7000   -6.9790  -30.7720 C   0  0  0  0  0  0  0  0  0  0  0  0
  -27.3120   -6.7130  -32.0530 N   0  0  0  0  0  0  0  0  0  0  0  0
  -27.2270   -8.2260  -30.0780 N   0  0  0  0  0  0  0  0  0  0  0  0
  -27.8410   -5.5320  -32.4210 C   0  0  0  0  0  0  0  0  0  0  0  0
  -28.5570   -5.0780  -31.3550 N   0  0  0  0  0  0  0  0  0  0  0  0
  -28.4690   -5.9520  -30.3670 N   0  0  0  0  0  0  0  0  0  0  0  0
  -28.8130   -5.9160  -28.9210 C   0  0  0  0  0  0  0  0  0  0  0  0
  -28.2560   -9.1760  -30.1550 C   0  0  1  0  0  0  0  0  0  0  0  0
  -28.6820   -9.6930  -31.5290 C   0  0  0  0  0  0  0  0  0  0  0  0
  -29.9370  -10.4750  -31.3860 C   0  0  0  0  0  0  0  0  0  0  0  0
  -29.7340  -11.6450  -30.4760 C   0  0  0  0  0  0  0  0  0  0  0  0
  -29.3170  -11.1420  -29.1130 C   0  0  0  0  0  0  0  0  0  0  0  0
  -28.0240  -10.3530  -29.2230 C   0  0  0  0  0  0  0  0  0  0  0  0
  -30.0760  -12.6900  -30.5810 O   0  0  0  0  0  0  0  0  0  0  0  0
  1  2  2  0
  1  6  1  0
  1  3  1  0
  2  4  1  0
  8  3  1  6
  4  5  2  0
  5  6  1  0
  6  7  1  0
  8  9  1  0
  8 13  1  0
  9 10  1  0
 10 11  1  0
 11 14  2  0
 11 12  1  0
 12 13  1  0
M  END
>  <name>  (412) 
Car Nac Nd0 Car Nac Nac Cs3 C3r C3r C3r C2r C3r C3r .=O

>  <indices>  (412) 
[0, 1, 2]

>  <tasks>  (412) 
probe_placing close_aromatic_ring close_aromatic_ring close_aromatic_ring ring_built build_to_Nac build_to_Nd0 close_aliphatic_ring close_aliphatic_ring close_aliphatic_ring close_aliphatic_ring close_aliphatic_ring

>  <prot_clashes>  (412) 
6

>  <NBS phar>  (412) 
0.22000000000000003

>  <NBS_non-phar>  (412) 
0.42147323063441683

>  <NBS>  (412) 
0.6414732306344169

>  <source_stage>  (412) 
scored

>  <source_iter>  (412) 
11

>  <source_parent_mol>  (412) 
0

>  <source_scenario>  (412) 
1 2 3 1 0 7 4 8 0 0 0

>  <source_rank_in_scored_call>  (412) 
0

>  <source_current_task>  (412) 
build_DB_to_Cs2

>  <scenario>  (412) 
1 2 3 1 0 7 4 8 0 0

>  <protected_ring_attachments>  (412) 
3,1,0,2|1,0,2;4,5,0,2|5,0,2;9,8,7,2|8,7,2;11,12,7,2|12,7,2

>  <current_task>  (412) 
no_task

>  <rotatable_bond_torsions>  (412) 
1,0,2,7;0,2,7,8

>  <reason_to_skip>  (412) 
global_duplicate

>  <global_duplicate_rmsd>  (412) 
0.0

>  <global_duplicate_old_source_iter>  (412) 
10

>  <global_duplicate_old_source_parent_mol>  (412) 
0

>  <global_duplicate_old_index>  (412) 
NA

>  <global_duplicate_rotatable_bond_torsions>  (412) 
1,0,2,7;0,2,7,8

>  <global_duplicate_old_rotatable_bond_torsions>  (412) 
1,0,2,7;0,2,7,8

>  <global_duplicate_last_growth_torsion>  (412) 
(9, 10, 11, 12)

>  <global_duplicate_protected_ring_attachments>  (412) 
3,1,0,2|1,0,2;4,5,0,2|5,0,2;9,8,7,2|8,7,2;11,12,7,2|12,7,2

>  <global_duplicate_old_last_growth_torsion>  (412) 
(9, 10, 11, 12)

>  <global_duplicate_old_protected_ring_attachments>  (412) 
3,1,0,2|1,0,2;4,5,0,2|5,0,2;9,8,7,2|8,7,2;11,12,7,2|12,7,2

$$$$

     RDKit          3D

 14 15  0  0  0  0  0  0  0  0999 V2000
  -27.7060   -6.9790  -30.7860 C   0  0  0  0  0  0  0  0  0  0  0  0
  -27.3150   -6.7310  -32.0690 N   0  0  0  0  0  0  0  0  0  0  0  0
  -27.2440   -8.2240  -30.0790 N   0  0  0  0  0  0  0  0  0  0  0  0
  -27.8320   -5.5490  -32.4500 C   0  0  0  0  0  0  0  0  0  0  0  0
  -28.5440   -5.0770  -31.3900 N   0  0  0  0  0  0  0  0  0  0  0  0
  -28.4640   -5.9410  -30.3920 N   0  0  0  0  0  0  0  0  0  0  0  0
  -28.8080   -5.8860  -28.9470 C   0  0  0  0  0  0  0  0  0  0  0  0
  -28.2830   -9.1640  -30.1470 C   0  0  1  0  0  0  0  0  0  0  0  0
  -28.7140   -9.6920  -31.5140 C   0  0  0  0  0  0  0  0  0  0  0  0
  -29.9760  -10.4600  -31.3640 C   0  0  0  0  0  0  0  0  0  0  0  0
  -29.7850  -11.6220  -30.4420 C   0  0  0  0  0  0  0  0  0  0  0  0
  -29.3630  -11.1090  -29.0830 C   0  0  0  0  0  0  0  0  0  0  0  0
  -28.0630  -10.3340  -29.2010 C   0  0  0  0  0  0  0  0  0  0  0  0
  -29.9030  -12.6550  -30.6550 O   0  0  0  0  0  0  0  0  0  0  0  0
  1  2  2  0
  1  6  1  0
  1  3  1  0
  2  4  1  0
  8  3  1  6
  4  5  2  0
  5  6  1  0
  6  7  1  0
  8  9  1  0
  8 13  1  0
  9 10  1  0
 10 11  1  0
 11 14  2  0
 11 12  1  0
 12 13  1  0
M  END
>  <name>  (413) 
Car Nac Nd0 Car Nac Nac Cs3 C3r C3r C3r C2r C3r C3r .=O

>  <indices>  (413) 
[0, 1, 2]

>  <tasks>  (413) 
probe_placing close_aromatic_ring close_aromatic_ring close_aromatic_ring ring_built build_to_Nac build_to_Nd0 close_aliphatic_ring close_aliphatic_ring close_aliphatic_ring close_aliphatic_ring close_aliphatic_ring

>  <prot_clashes>  (413) 
6

>  <NBS phar>  (413) 
0.22000000000000003

>  <NBS_non-phar>  (413) 
0.3935863290514265

>  <NBS>  (413) 
0.6135863290514265

>  <source_stage>  (413) 
scored

>  <source_iter>  (413) 
11

>  <source_parent_mol>  (413) 
0

>  <source_scenario>  (413) 
1 2 3 1 0 7 4 8 0 0 0

>  <source_rank_in_scored_call>  (413) 
1

>  <source_current_task>  (413) 
build_DB_to_Cs2

>  <scenario>  (413) 
1 2 3 1 0 7 4 8 0 0

>  <protected_ring_attachments>  (413) 
3,1,0,2|1,0,2;4,5,0,2|5,0,2;9,8,7,2|8,7,2;11,12,7,2|12,7,2

>  <current_task>  (413) 
no_task

>  <rotatable_bond_torsions>  (413) 
1,0,2,7;0,2,7,8

>  <reason_to_skip>  (413) 
global_duplicate

>  <global_duplicate_rmsd>  (413) 
0.0

>  <global_duplicate_old_source_iter>  (413) 
10

>  <global_duplicate_old_source_parent_mol>  (413) 
0

>  <global_duplicate_old_index>  (413) 
NA

>  <global_duplicate_rotatable_bond_torsions>  (413) 
1,0,2,7;0,2,7,8

>  <global_duplicate_old_rotatable_bond_torsions>  (413) 
1,0,2,7;0,2,7,8

>  <global_duplicate_last_growth_torsion>  (413) 
(9, 10, 11, 12)

>  <global_duplicate_protected_ring_attachments>  (413) 
3,1,0,2|1,0,2;4,5,0,2|5,0,2;9,8,7,2|8,7,2;11,12,7,2|12,7,2

>  <global_duplicate_old_last_growth_torsion>  (413) 
(9, 10, 11, 12)

>  <global_duplicate_old_protected_ring_attachments>  (413) 
3,1,0,2|1,0,2;4,5,0,2|5,0,2;9,8,7,2|8,7,2;11,12,7,2|12,7,2

$$$$

     RDKit          3D

 13 14  0  0  0  0  0  0  0  0999 V2000
  -27.6390   -6.9700  -30.7550 C   0  0  0  0  0  0  0  0  0  0  0  0
  -27.3130   -6.7070  -32.0530 N   0  0  0  0  0  0  0  0  0  0  0  0
  -27.0110   -8.1310  -30.0330 N   0  0  0  0  0  0  0  0  0  0  0  0
  -27.9790   -5.6060  -32.4440 C   0  0  0  0  0  0  0  0  0  0  0  0
  -28.7140   -5.1970  -31.3740 N   0  0  0  0  0  0  0  0  0  0  0  0
  -28.5070   -6.0200  -30.3610 N   0  0  0  0  0  0  0  0  0  0  0  0
  -28.8190   -5.9710  -28.9080 C   0  0  0  0  0  0  0  0  0  0  0  0
  -27.9540   -9.2930  -29.9790 C   0  0  1  0  0  0  0  0  0  0  0  0
  -28.2180   -9.9130  -31.3190 C   0  0  0  0  0  0  0  0  0  0  0  0
  -29.6190  -10.4840  -31.3230 C   0  0  0  0  0  0  0  0  0  0  0  0
  -29.7470  -11.5350  -30.2430 C   0  0  0  0  0  0  0  0  0  0  0  0
  -29.4670  -10.9000  -28.9190 C   0  0  0  0  0  0  0  0  0  0  0  0
  -28.0800  -10.3310  -28.9070 C   0  0  0  0  0  0  0  0  0  0  0  0
  1  2  2  0
  1  6  1  0
  1  3  1  0
  2  4  1  0
  8  3  1  6
  4  5  2  0
  5  6  1  0
  6  7  1  0
  8  9  1  0
  8 13  1  0
  9 10  1  0
 10 11  1  0
 11 12  1  0
 12 13  1  0
M  END
>  <name>  (414) 
Car Nac Nd0 Car Nac Nac Cs3 C3r C3r C3r C3r C3r C3r

>  <indices>  (414) 
[0, 1, 2]

>  <tasks>  (414) 
probe_placing close_aromatic_ring close_aromatic_ring close_aromatic_ring ring_built build_to_Nac build_to_Nd0 close_aliphatic_ring close_aliphatic_ring close_aliphatic_ring close_aliphatic_ring

>  <prot_clashes>  (414) 
6

>  <NBS phar>  (414) 
0.1

>  <NBS_non-phar>  (414) 
0.3222177212054913

>  <NBS>  (414) 
0.4222177212054913

>  <source_stage>  (414) 
scored

>  <source_iter>  (414) 
10

>  <source_parent_mol>  (414) 
1

>  <source_scenario>  (414) 
1 2 3 1 0 7 4 8 1 1

>  <source_rank_in_scored_call>  (414) 
2

>  <source_current_task>  (414) 
close_aliphatic_ring

>  <scenario>  (414) 
1 2 3 1 0 7 4 8 1

>  <protected_ring_attachments>  (414) 
3,1,0,2|1,0,2;4,5,0,2|5,0,2

>  <current_task>  (414) 
no_task

>  <rotatable_bond_torsions>  (414) 
1,0,2,7;0,2,7,8;2,7,8,9;7,8,9,10;8,9,10,11

$$$$

     RDKit          3D

 13 14  0  0  0  0  0  0  0  0999 V2000
  -27.6720   -7.1050  -30.8450 C   0  0  0  0  0  0  0  0  0  0  0  0
  -27.4660   -6.7490  -32.1450 N   0  0  0  0  0  0  0  0  0  0  0  0
  -27.2040   -8.4410  -30.3410 N   0  0  0  0  0  0  0  0  0  0  0  0
  -27.9410   -5.5020  -32.3250 C   0  0  0  0  0  0  0  0  0  0  0  0
  -28.4420   -5.1020  -31.1240 N   0  0  0  0  0  0  0  0  0  0  0  0
  -28.2780   -6.0680  -30.2370 N   0  0  0  0  0  0  0  0  0  0  0  0
  -28.3890   -6.1430  -28.7590 C   0  0  0  0  0  0  0  0  0  0  0  0
  -28.2350   -9.3320  -30.6570 C   0  0  1  0  0  0  0  0  0  0  0  0
  -29.4770   -9.3050  -31.4980 C   0  0  0  0  0  0  0  0  0  0  0  0
  -30.1020  -10.6750  -31.4360 C   0  0  0  0  0  0  0  0  0  0  0  0
  -29.2450  -11.6500  -31.9160 O   0  0  0  0  0  0  0  0  0  0  0  0
  -28.0650  -11.7150  -31.1890 C   0  0  0  0  0  0  0  0  0  0  0  0
  -27.3220  -10.3810  -31.2460 C   0  0  0  0  0  0  0  0  0  0  0  0
  1  2  2  0
  1  3  1  0
  1  6  1  0
  2  4  1  0
  8  3  1  6
  4  5  2  0
  5  6  1  0
  6  7  1  0
  8  9  1  0
  8 13  1  0
  9 10  1  0
 10 11  1  0
 11 12  1  0
 12 13  1  0
M  END
>  <name>  (415) 
Car Nac Nd0 Car Nac Nac Cs3 C3r C3r C3r O_a C3r C3r

>  <indices>  (415) 
[0, 1, 2]

>  <tasks>  (415) 
probe_placing close_aromatic_ring close_aromatic_ring close_aromatic_ring ring_built build_to_Nac build_to_Nd0 close_aliphatic_ring close_aliphatic_ring close_aliphatic_ring close_aliphatic_ring

>  <prot_clashes>  (415) 
12

>  <NBS phar>  (415) 
0.13999999999999999

>  <NBS_non-phar>  (415) 
0.4475573393014761

>  <NBS>  (415) 
0.5875573393014761

>  <source_stage>  (415) 
scored

>  <source_iter>  (415) 
10

>  <source_parent_mol>  (415) 
0

>  <source_scenario>  (415) 
1 2 3 1 0 7 4 8 2 0

>  <source_rank_in_scored_call>  (415) 
0

>  <source_current_task>  (415) 
close_aliphatic_ring

>  <scenario>  (415) 
1 2 3 1 0 7 4 8 2

>  <protected_ring_attachments>  (415) 
3,1,0,2|1,0,2;4,5,0,2|5,0,2

>  <current_task>  (415) 
no_task

>  <rotatable_bond_torsions>  (415) 
1,0,2,7;0,2,7,8;2,7,8,9;7,8,9,10;8,9,10,11

$$$$

     RDKit          3D

 14 15  0  0  0  0  0  0  0  0999 V2000
  -27.6640   -7.1340  -30.8810 C   0  0  0  0  0  0  0  0  0  0  0  0
  -27.4830   -6.7380  -32.1730 N   0  0  0  0  0  0  0  0  0  0  0  0
  -27.1860   -8.4840  -30.4270 N   0  0  0  0  0  0  0  0  0  0  0  0
  -27.9610   -5.4860  -32.3050 C   0  0  0  0  0  0  0  0  0  0  0  0
  -28.4380   -5.1230  -31.0830 N   0  0  0  0  0  0  0  0  0  0  0  0
  -28.2580   -6.1160  -30.2300 N   0  0  0  0  0  0  0  0  0  0  0  0
  -28.3400   -6.2360  -28.7530 C   0  0  0  0  0  0  0  0  0  0  0  0
  -28.2230   -9.3660  -30.7500 C   0  0  1  0  0  0  0  0  0  0  0  0
  -29.4810   -9.3130  -31.5660 C   0  0  0  0  0  0  0  0  0  0  0  0
  -30.1050  -10.6850  -31.5340 C   0  0  0  0  0  0  0  0  0  0  0  0
  -29.2580  -11.6440  -32.0600 O   0  0  0  0  0  0  0  0  0  0  0  0
  -28.0640  -11.7310  -31.3580 C   0  0  0  0  0  0  0  0  0  0  0  0
  -27.3220  -10.3960  -31.3890 C   0  0  0  0  0  0  0  0  0  0  0  0
  -28.0910   -7.5550  -28.1120 C   0  0  0  0  0  0  0  0  0  0  0  0
  1  2  2  0
  1  3  1  0
  1  6  1  0
  2  4  1  0
  8  3  1  6
  4  5  2  0
  5  6  1  0
  6  7  1  0
  8  9  1  0
  8 13  1  0
  9 10  1  0
 10 11  1  0
 11 12  1  0
 12 13  1  0
  7 14  1  0
M  END
>  <name>  (416) 
Car Nac Nd0 Car Nac Nac Cs3 C3r C3r C3r O_a C3r C3r Cs3

>  <indices>  (416) 
[0, 1, 2]

>  <tasks>  (416) 
probe_placing close_aromatic_ring close_aromatic_ring close_aromatic_ring ring_built build_to_Nac build_to_Nd0 close_aliphatic_ring close_aliphatic_ring close_aliphatic_ring close_aliphatic_ring close_aliphatic_ring

>  <prot_clashes>  (416) 
12

>  <NBS phar>  (416) 
0.24000000000000005

>  <NBS_non-phar>  (416) 
0.43991020747593473

>  <NBS>  (416) 
0.6799102074759348

>  <source_stage>  (416) 
scored

>  <source_iter>  (416) 
11

>  <source_parent_mol>  (416) 
0

>  <source_scenario>  (416) 
1 2 3 1 0 7 4 8 2 0 0

>  <source_rank_in_scored_call>  (416) 
2

>  <source_current_task>  (416) 
no_task

>  <scenario>  (416) 
1 2 3 1 0 7 4 8 2 0

>  <protected_ring_attachments>  (416) 
3,1,0,2|1,0,2;4,5,0,2|5,0,2;9,8,7,2|8,7,2;11,12,7,2|12,7,2

>  <current_task>  (416) 
no_task

>  <rotatable_bond_torsions>  (416) 
1,0,2,7;0,2,7,8

$$$$

     RDKit          3D

 14 15  0  0  0  0  0  0  0  0999 V2000
  -27.7940   -7.0210  -30.7900 C   0  0  0  0  0  0  0  0  0  0  0  0
  -27.3130   -6.8380  -32.0530 N   0  0  0  0  0  0  0  0  0  0  0  0
  -27.4360   -8.2560  -30.0130 N   0  0  0  0  0  0  0  0  0  0  0  0
  -27.7480   -5.6470  -32.5060 C   0  0  0  0  0  0  0  0  0  0  0  0
  -28.5020   -5.1070  -31.5100 N   0  0  0  0  0  0  0  0  0  0  0  0
  -28.5270   -5.9350  -30.4800 N   0  0  0  0  0  0  0  0  0  0  0  0
  -28.9570   -5.8120  -29.0650 C   0  0  0  0  0  0  0  0  0  0  0  0
  -28.3650   -9.2220  -30.4130 C   0  0  1  0  0  0  0  0  0  0  0  0
  -29.3940   -9.3590  -31.4960 C   0  0  0  0  0  0  0  0  0  0  0  0
  -30.0050  -10.7310  -31.3750 C   0  0  0  0  0  0  0  0  0  0  0  0
  -29.0560  -11.7280  -31.5170 O   0  0  0  0  0  0  0  0  0  0  0  0
  -28.0620  -11.6470  -30.5520 C   0  0  0  0  0  0  0  0  0  0  0  0
  -27.3360  -10.3050  -30.6370 C   0  0  0  0  0  0  0  0  0  0  0  0
  -29.0900   -4.2550  -28.7510 C   0  0  0  0  0  0  0  0  0  0  0  0
  1  2  2  0
  1  6  1  0
  1  3  1  0
  2  4  1  0
  8  3  1  6
  4  5  2  0
  5  6  1  0
  6  7  1  0
  8  9  1  0
  8 13  1  0
  9 10  1  0
 10 11  1  0
 11 12  1  0
 12 13  1  0
  7 14  1  0
M  END
>  <name>  (417) 
Car Nac Nd0 Car Nac Nac Cs3 C3r C3r C3r O_a C3r C3r Cs3

>  <indices>  (417) 
[0, 1, 2]

>  <tasks>  (417) 
probe_placing close_aromatic_ring close_aromatic_ring close_aromatic_ring ring_built build_to_Nac build_to_Nd0 close_aliphatic_ring close_aliphatic_ring close_aliphatic_ring close_aliphatic_ring close_aliphatic_ring

>  <prot_clashes>  (417) 
12

>  <NBS phar>  (417) 
0.13999999999999999

>  <NBS_non-phar>  (417) 
0.23643926211765834

>  <NBS>  (417) 
0.3764392621176583

>  <source_stage>  (417) 
scored

>  <source_iter>  (417) 
11

>  <source_parent_mol>  (417) 
0

>  <source_scenario>  (417) 
1 2 3 1 0 7 4 8 2 0 0

>  <source_rank_in_scored_call>  (417) 
9

>  <source_current_task>  (417) 
no_task

>  <scenario>  (417) 
1 2 3 1 0 7 4 8 2 0

>  <protected_ring_attachments>  (417) 
3,1,0,2|1,0,2;4,5,0,2|5,0,2;9,8,7,2|8,7,2;11,12,7,2|12,7,2

>  <current_task>  (417) 
no_task

>  <rotatable_bond_torsions>  (417) 
1,0,2,7;0,2,7,8

$$$$

     RDKit          3D

 13 14  0  0  0  0  0  0  0  0999 V2000
  -27.7130   -7.0410  -30.6140 C   0  0  0  0  0  0  0  0  0  0  0  0
  -27.9330   -7.1550  -31.9560 N   0  0  0  0  0  0  0  0  0  0  0  0
  -27.1360   -8.1910  -29.8380 N   0  0  0  0  0  0  0  0  0  0  0  0
  -28.4140   -5.9830  -32.4110 C   0  0  0  0  0  0  0  0  0  0  0  0
  -28.4860   -5.1500  -31.3340 N   0  0  0  0  0  0  0  0  0  0  0  0
  -28.0660   -5.7910  -30.2580 N   0  0  0  0  0  0  0  0  0  0  0  0
  -27.6900   -5.3670  -28.8840 C   0  0  0  0  0  0  0  0  0  0  0  0
  -28.0860   -9.2680  -29.5570 C   0  0  1  0  0  0  0  0  0  0  0  0
  -29.5700   -9.0430  -29.5830 C   0  0  0  0  0  0  0  0  0  0  0  0
  -30.2630  -10.3180  -29.2260 C   0  0  0  0  0  0  0  0  0  0  0  0
  -29.9040  -11.3840  -30.2160 C   0  0  0  0  0  0  0  0  0  0  0  0
  -28.4210  -11.6080  -30.1910 C   0  0  0  0  0  0  0  0  0  0  0  0
  -27.7190  -10.3350  -30.5530 C   0  0  0  0  0  0  0  0  0  0  0  0
  1  2  2  0
  1  6  1  0
  1  3  1  0
  2  4  1  0
  8  3  1  6
  4  5  2  0
  5  6  1  0
  6  7  1  0
  8 13  1  0
  8  9  1  0
  9 10  1  0
 10 11  1  0
 11 12  1  0
 12 13  1  0
M  END
>  <name>  (418) 
Car Nac Nd0 Car Nac Nac Cs3 C3r C3r C3r C3r C3r C3r

>  <indices>  (418) 
[0, 1, 2]

>  <tasks>  (418) 
probe_placing close_aromatic_ring close_aromatic_ring close_aromatic_ring ring_built build_to_Nac build_to_Nd0 close_aliphatic_ring close_aliphatic_ring close_aliphatic_ring close_aliphatic_ring

>  <prot_clashes>  (418) 
11

>  <NBS phar>  (418) 
0.02

>  <NBS_non-phar>  (418) 
0.3856673607459435

>  <NBS>  (418) 
0.4056673607459435

>  <source_stage>  (418) 
scored

>  <source_iter>  (418) 
10

>  <source_parent_mol>  (418) 
6

>  <source_scenario>  (418) 
1 2 3 1 0 7 4 8 3 6

>  <source_rank_in_scored_call>  (418) 
4

>  <source_current_task>  (418) 
close_aliphatic_ring

>  <scenario>  (418) 
1 2 3 1 0 7 4 8 3

>  <protected_ring_attachments>  (418) 
3,1,0,2|1,0,2;4,5,0,2|5,0,2

>  <current_task>  (418) 
no_task

>  <rotatable_bond_torsions>  (418) 
1,0,2,7;0,2,7,8;2,7,8,9;7,8,9,10;8,9,10,11

$$$$

     RDKit          3D

 15 16  0  0  0  0  0  0  0  0999 V2000
  -27.6200   -7.0890  -31.0020 C   0  0  0  0  0  0  0  0  0  0  0  0
  -27.7870   -6.7020  -32.2990 N   0  0  0  0  0  0  0  0  0  0  0  0
  -26.8420   -8.3350  -30.6750 N   0  0  0  0  0  0  0  0  0  0  0  0
  -28.4810   -5.5490  -32.3130 C   0  0  0  0  0  0  0  0  0  0  0  0
  -28.7390   -5.2380  -31.0110 N   0  0  0  0  0  0  0  0  0  0  0  0
  -28.2200   -6.1660  -30.2300 N   0  0  0  0  0  0  0  0  0  0  0  0
  -27.9630   -6.2620  -28.7680 C   0  0  0  0  0  0  0  0  0  0  0  0
  -27.5770   -9.6590  -30.6090 C   0  0  2  0  0  0  0  0  0  0  0  0
  -28.8110   -9.6200  -31.4180 C   0  0  0  0  0  0  0  0  0  0  0  0
  -29.5620  -10.9250  -31.4040 C   0  0  0  0  0  0  0  0  0  0  0  0
  -29.9990  -11.2580  -29.6430 S   0  0  2  0  0  0  0  0  0  0  0  0
  -30.7150  -12.5780  -29.6060 O   0  0  0  0  0  0  0  0  0  0  0  0
  -30.8170  -10.2320  -29.1440 O   0  0  0  0  0  0  0  0  0  0  0  0
  -28.3070  -11.3130  -28.8800 C   0  0  0  0  0  0  0  0  0  0  0  0
  -27.6800   -9.9490  -29.1560 C   0  0  0  0  0  0  0  0  0  0  0  0
  1  2  2  0
  1  3  1  0
  1  6  1  0
  2  4  1  0
  8  3  1  1
  4  5  2  0
  5  6  1  0
  6  7  1  0
  8  9  1  0
  8 15  1  0
  9 10  1  0
 11 10  1  6
 11 12  2  0
 11 13  2  0
 11 14  1  0
 14 15  1  0
M  END
>  <name>  (419) 
Car Nac Nd0 Car Nac Nac Cs3 C3r C3r C3r SO2 .=O .=O C3r C3r

>  <indices>  (419) 
[0, 1, 2]

>  <tasks>  (419) 
probe_placing close_aromatic_ring close_aromatic_ring close_aromatic_ring ring_built build_to_Nac build_to_Nd0 close_aliphatic_ring close_aliphatic_ring close_aliphatic_ring build_.=O_to_SO2 build_.=O_to_SO2 close_aliphatic_ring

>  <prot_clashes>  (419) 
7

>  <NBS phar>  (419) 
0.13999999999999999

>  <NBS_non-phar>  (419) 
0.4023788770039876

>  <NBS>  (419) 
0.5423788770039876

>  <source_stage>  (419) 
scored

>  <source_iter>  (419) 
12

>  <source_parent_mol>  (419) 
0

>  <source_scenario>  (419) 
1 2 3 1 0 7 4 8 7 1 1 0

>  <source_rank_in_scored_call>  (419) 
3

>  <source_current_task>  (419) 
close_aliphatic_ring

>  <scenario>  (419) 
1 2 3 1 0 7 4 8 7 1 1

>  <protected_ring_attachments>  (419) 
3,1,0,2|1,0,2;4,5,0,2|5,0,2

>  <current_task>  (419) 
no_task

>  <rotatable_bond_torsions>  (419) 
1,0,2,7;0,2,7,8;2,7,8,9;7,8,9,10;8,9,10,13

$$$$

     RDKit          3D

 12 13  0  0  0  0  0  0  0  0999 V2000
  -27.7170   -6.9520  -30.7620 C   0  0  0  0  0  0  0  0  0  0  0  0
  -27.2980   -6.7820  -32.0490 N   0  0  0  0  0  0  0  0  0  0  0  0
  -27.2900   -8.1600  -29.9780 N   0  0  0  0  0  0  0  0  0  0  0  0
  -27.7870   -5.6150  -32.5050 C   0  0  0  0  0  0  0  0  0  0  0  0
  -28.5100   -5.0720  -31.4870 N   0  0  0  0  0  0  0  0  0  0  0  0
  -28.4650   -5.8810  -30.4410 N   0  0  0  0  0  0  0  0  0  0  0  0
  -28.8340   -5.7380  -29.0100 C   0  0  0  0  0  0  0  0  0  0  0  0
  -27.9190   -9.4230  -30.3260 C   0  0  2  0  0  0  0  0  0  0  0  0
  -29.2010   -9.3230  -31.0880 C   0  0  0  0  0  0  0  0  0  0  0  0
  -29.6610  -10.7200  -31.4130 C   0  0  0  0  0  0  0  0  0  0  0  0
  -29.0110  -11.5880  -30.3770 C   0  0  0  0  0  0  0  0  0  0  0  0
  -27.8090  -10.8480  -29.8460 C   0  0  0  0  0  0  0  0  0  0  0  0
  1  2  2  0
  1  6  1  0
  1  3  1  0
  2  4  1  0
  8  3  1  1
  4  5  2  0
  5  6  1  0
  6  7  1  0
  8  9  1  0
  8 12  1  0
  9 10  1  0
 10 11  1  0
 11 12  1  0
M  END
>  <name>  (420) 
Car Nac Nd0 Car Nac Nac Cs3 C3r C3r C3r C3r C3r

>  <indices>  (420) 
[0, 1, 2]

>  <tasks>  (420) 
probe_placing close_aromatic_ring close_aromatic_ring close_aromatic_ring ring_built build_to_Nac build_to_Nd0 close_aliphatic_ring close_aliphatic_ring close_aliphatic_ring

>  <prot_clashes>  (420) 
9

>  <NBS phar>  (420) 
0.1

>  <NBS_non-phar>  (420) 
0.3414026101430257

>  <NBS>  (420) 
0.44140261014302573

>  <source_stage>  (420) 
scored

>  <source_iter>  (420) 
9

>  <source_parent_mol>  (420) 
8

>  <source_scenario>  (420) 
1 2 3 1 0 7 4 8 8

>  <source_rank_in_scored_call>  (420) 
7

>  <source_current_task>  (420) 
close_aliphatic_ring

>  <scenario>  (420) 
1 2 3 1 0 7 4 8

>  <protected_ring_attachments>  (420) 
3,1,0,2|1,0,2;4,5,0,2|5,0,2

>  <current_task>  (420) 
no_task

>  <rotatable_bond_torsions>  (420) 
1,0,2,7;0,2,7,8;2,7,8,9;7,8,9,10

$$$$

     RDKit          3D

 13 14  0  0  0  0  0  0  0  0999 V2000
  -27.8090   -6.9720  -30.6160 C   0  0  0  0  0  0  0  0  0  0  0  0
  -27.2160   -6.9050  -31.8420 N   0  0  0  0  0  0  0  0  0  0  0  0
  -27.5000   -8.1100  -29.6840 N   0  0  0  0  0  0  0  0  0  0  0  0
  -27.6320   -5.7810  -32.4540 C   0  0  0  0  0  0  0  0  0  0  0  0
  -28.4860   -5.1620  -31.5920 N   0  0  0  0  0  0  0  0  0  0  0  0
  -28.5890   -5.8820  -30.4880 N   0  0  0  0  0  0  0  0  0  0  0  0
  -29.1500   -5.6270  -29.1370 C   0  0  0  0  0  0  0  0  0  0  0  0
  -28.4190   -9.2750  -29.7560 C   0  0  1  0  0  0  0  0  0  0  0  0
  -29.0830   -9.4640  -31.1280 C   0  0  0  0  0  0  0  0  0  0  0  0
  -29.9280  -10.7050  -30.9940 C   0  0  0  0  0  0  0  0  0  0  0  0
  -29.0190  -11.8570  -30.6380 C   0  0  0  0  0  0  0  0  0  0  0  0
  -28.3600  -11.6060  -29.4330 O   0  0  0  0  0  0  0  0  0  0  0  0
  -27.5780  -10.4880  -29.4540 C   0  0  0  0  0  0  0  0  0  0  0  0
  1  2  2  0
  1  6  1  0
  1  3  1  0
  2  4  1  0
  8  3  1  6
  4  5  2  0
  5  6  1  0
  6  7  1  0
  8  9  1  0
  8 13  1  0
  9 10  1  0
 10 11  1  0
 11 12  1  0
 12 13  1  0
M  END
>  <name>  (421) 
Car Nac Nd0 Car Nac Nac Cs3 C3r C3r C3r C3r O_a C3r

>  <indices>  (421) 
[0, 1, 2]

>  <tasks>  (421) 
probe_placing close_aromatic_ring close_aromatic_ring close_aromatic_ring ring_built build_to_Nac build_to_Nd0 close_aliphatic_ring close_aliphatic_ring close_aliphatic_ring close_aliphatic_ring

>  <prot_clashes>  (421) 
12

>  <NBS phar>  (421) 
0.1

>  <NBS_non-phar>  (421) 
0.29611838780916655

>  <NBS>  (421) 
0.39611838780916653

>  <source_stage>  (421) 
scored

>  <source_iter>  (421) 
10

>  <source_parent_mol>  (421) 
0

>  <source_scenario>  (421) 
1 2 3 1 0 7 4 8 8 0

>  <source_rank_in_scored_call>  (421) 
3

>  <source_current_task>  (421) 
close_aliphatic_ring

>  <scenario>  (421) 
1 2 3 1 0 7 4 8 8

>  <protected_ring_attachments>  (421) 
3,1,0,2|1,0,2;4,5,0,2|5,0,2

>  <current_task>  (421) 
no_task

>  <rotatable_bond_torsions>  (421) 
1,0,2,7;0,2,7,8;2,7,8,9;7,8,9,10;8,9,10,11

$$$$

     RDKit          3D

 13 14  0  0  0  0  0  0  0  0999 V2000
  -27.6910   -6.9670  -30.8260 C   0  0  0  0  0  0  0  0  0  0  0  0
  -27.3150   -6.7270  -32.1160 N   0  0  0  0  0  0  0  0  0  0  0  0
  -27.2010   -8.1930  -30.1080 N   0  0  0  0  0  0  0  0  0  0  0  0
  -27.8570   -5.5580  -32.5050 C   0  0  0  0  0  0  0  0  0  0  0  0
  -28.5670   -5.0870  -31.4440 N   0  0  0  0  0  0  0  0  0  0  0  0
  -28.4640   -5.9370  -30.4360 N   0  0  0  0  0  0  0  0  0  0  0  0
  -28.7960   -5.8690  -28.9900 C   0  0  0  0  0  0  0  0  0  0  0  0
  -28.4100   -9.1230  -29.9620 C   0  0  1  0  0  0  0  0  0  0  0  0
  -28.4750   -9.6170  -31.3740 C   0  0  0  0  0  0  0  0  0  0  0  0
  -29.5630  -10.6960  -31.3900 C   0  0  0  0  0  0  0  0  0  0  0  0
  -29.1500  -11.7930  -30.4300 C   0  0  0  0  0  0  0  0  0  0  0  0
  -29.0090  -11.2920  -29.1550 O   0  0  0  0  0  0  0  0  0  0  0  0
  -28.0590  -10.2870  -29.0760 C   0  0  0  0  0  0  0  0  0  0  0  0
  1  2  2  0
  1  6  1  0
  1  3  1  0
  2  4  1  0
  8  3  1  6
  4  5  2  0
  5  6  1  0
  6  7  1  0
  8  9  1  0
  8 13  1  0
  9 10  1  0
 10 11  1  0
 11 12  1  0
 12 13  1  0
M  END
>  <name>  (422) 
Car Nac Nd0 Car Nac Nac Cs3 C3r C3r C3r C3r O_a C3r

>  <indices>  (422) 
[0, 1, 2]

>  <tasks>  (422) 
probe_placing close_aromatic_ring close_aromatic_ring close_aromatic_ring ring_built build_to_Nac build_to_Nd0 close_aliphatic_ring close_aliphatic_ring close_aliphatic_ring close_aliphatic_ring

>  <prot_clashes>  (422) 
4

>  <NBS phar>  (422) 
0.1

>  <NBS_non-phar>  (422) 
0.2853587774130014

>  <NBS>  (422) 
0.3853587774130014

>  <source_stage>  (422) 
scored

>  <source_iter>  (422) 
10

>  <source_parent_mol>  (422) 
4

>  <source_scenario>  (422) 
1 2 3 1 0 7 4 8 8 4

>  <source_rank_in_scored_call>  (422) 
1

>  <source_current_task>  (422) 
close_aliphatic_ring

>  <scenario>  (422) 
1 2 3 1 0 7 4 8 8

>  <protected_ring_attachments>  (422) 
3,1,0,2|1,0,2;4,5,0,2|5,0,2

>  <current_task>  (422) 
no_task

>  <rotatable_bond_torsions>  (422) 
1,0,2,7;0,2,7,8;2,7,8,9;7,8,9,10;8,9,10,11

$$$$

     RDKit          3D

 13 14  0  0  0  0  0  0  0  0999 V2000
  -27.6040   -6.9250  -30.4320 C   0  0  0  0  0  0  0  0  0  0  0  0
  -27.5550   -7.3140  -31.7380 N   0  0  0  0  0  0  0  0  0  0  0  0
  -27.0580   -7.8170  -29.3530 N   0  0  0  0  0  0  0  0  0  0  0  0
  -28.0710   -6.3290  -32.4950 C   0  0  0  0  0  0  0  0  0  0  0  0
  -28.4380   -5.3340  -31.6410 N   0  0  0  0  0  0  0  0  0  0  0  0
  -28.1560   -5.6990  -30.4010 N   0  0  0  0  0  0  0  0  0  0  0  0
  -28.0950   -4.9800  -29.1030 C   0  0  0  0  0  0  0  0  0  0  0  0
  -27.8450   -8.9890  -29.0110 C   0  0  2  0  0  0  0  0  0  0  0  0
  -29.2800   -8.9540  -29.4290 C   0  0  0  0  0  0  0  0  0  0  0  0
  -29.9080  -10.2700  -29.0520 C   0  0  0  0  0  0  0  0  0  0  0  0
  -29.0530  -10.7980  -27.9380 C   0  0  0  0  0  0  0  0  0  0  0  0
  -27.7020  -10.1360  -28.0420 C   0  0  0  0  0  0  0  0  0  0  0  0
  -29.5720   -4.6990  -28.6930 C   0  0  0  0  0  0  0  0  0  0  0  0
  1  2  2  0
  1  6  1  0
  1  3  1  0
  2  4  1  0
  8  3  1  1
  4  5  2  0
  5  6  1  0
  6  7  1  0
  8  9  1  0
  8 12  1  0
  9 10  1  0
 10 11  1  0
 11 12  1  0
  7 13  1  0
M  END
>  <name>  (423) 
Car Nac Nd0 Car Nac Nac Cs3 C3r C3r C3r C3r C3r Cs3

>  <indices>  (423) 
[0, 1, 2]

>  <tasks>  (423) 
probe_placing close_aromatic_ring close_aromatic_ring close_aromatic_ring ring_built build_to_Nac build_to_Nd0 close_aliphatic_ring close_aliphatic_ring close_aliphatic_ring close_aliphatic_ring

>  <prot_clashes>  (423) 
9

>  <NBS phar>  (423) 
0.04

>  <NBS_non-phar>  (423) 
0.4772021953876202

>  <NBS>  (423) 
0.5172021953876202

>  <source_stage>  (423) 
scored

>  <source_iter>  (423) 
10

>  <source_parent_mol>  (423) 
7

>  <source_scenario>  (423) 
1 2 3 1 0 7 4 8 8 7

>  <source_rank_in_scored_call>  (423) 
15

>  <source_current_task>  (423) 
no_task

>  <scenario>  (423) 
1 2 3 1 0 7 4 8 8

>  <protected_ring_attachments>  (423) 
3,1,0,2|1,0,2;4,5,0,2|5,0,2;9,8,7,2|8,7,2;10,11,7,2|11,7,2

>  <current_task>  (423) 
no_task

>  <rotatable_bond_torsions>  (423) 
1,0,2,7;0,2,7,8

$$$$

     RDKit          3D

 13 14  0  0  0  0  0  0  0  0999 V2000
  -27.6800   -6.8160  -30.4040 C   0  0  0  0  0  0  0  0  0  0  0  0
  -27.5650   -7.3250  -31.6650 N   0  0  0  0  0  0  0  0  0  0  0  0
  -27.1500   -7.5820  -29.2260 N   0  0  0  0  0  0  0  0  0  0  0  0
  -28.0800   -6.4350  -32.5310 C   0  0  0  0  0  0  0  0  0  0  0  0
  -28.5130   -5.3770  -31.7910 N   0  0  0  0  0  0  0  0  0  0  0  0
  -28.2700   -5.6120  -30.5120 N   0  0  0  0  0  0  0  0  0  0  0  0
  -28.2850   -4.7720  -29.2880 C   0  0  0  0  0  0  0  0  0  0  0  0
  -27.9140   -8.7440  -28.8020 C   0  0  2  0  0  0  0  0  0  0  0  0
  -29.3310   -8.7980  -29.2750 C   0  0  0  0  0  0  0  0  0  0  0  0
  -29.9330  -10.0940  -28.7970 C   0  0  0  0  0  0  0  0  0  0  0  0
  -29.1080  -10.4830  -27.6070 C   0  0  0  0  0  0  0  0  0  0  0  0
  -27.7750   -9.7880  -27.7230 C   0  0  0  0  0  0  0  0  0  0  0  0
  -29.5560   -5.1140  -28.5500 C   0  0  0  0  0  0  0  0  0  0  0  0
  1  2  2  0
  1  6  1  0
  1  3  1  0
  2  4  1  0
  8  3  1  1
  4  5  2  0
  5  6  1  0
  6  7  1  0
  8  9  1  0
  8 12  1  0
  9 10  1  0
 10 11  1  0
 11 12  1  0
  7 13  1  0
M  END
>  <name>  (424) 
Car Nac Nd0 Car Nac Nac Cs3 C3r C3r C3r C3r C3r Cs3

>  <indices>  (424) 
[0, 1, 2]

>  <tasks>  (424) 
probe_placing close_aromatic_ring close_aromatic_ring close_aromatic_ring ring_built build_to_Nac build_to_Nd0 close_aliphatic_ring close_aliphatic_ring close_aliphatic_ring close_aliphatic_ring

>  <prot_clashes>  (424) 
10

>  <NBS phar>  (424) 
0.02

>  <NBS_non-phar>  (424) 
0.48285436630249023

>  <NBS>  (424) 
0.5028543663024903

>  <source_stage>  (424) 
scored

>  <source_iter>  (424) 
10

>  <source_parent_mol>  (424) 
7

>  <source_scenario>  (424) 
1 2 3 1 0 7 4 8 8 7

>  <source_rank_in_scored_call>  (424) 
18

>  <source_current_task>  (424) 
no_task

>  <scenario>  (424) 
1 2 3 1 0 7 4 8 8

>  <protected_ring_attachments>  (424) 
3,1,0,2|1,0,2;4,5,0,2|5,0,2;9,8,7,2|8,7,2;10,11,7,2|11,7,2

>  <current_task>  (424) 
no_task

>  <rotatable_bond_torsions>  (424) 
1,0,2,7;0,2,7,8

$$$$

     RDKit          3D

 13 14  0  0  0  0  0  0  0  0999 V2000
  -27.6180   -6.8330  -30.4310 C   0  0  0  0  0  0  0  0  0  0  0  0
  -27.5450   -7.2400  -31.7310 N   0  0  0  0  0  0  0  0  0  0  0  0
  -27.0840   -7.7060  -29.3310 N   0  0  0  0  0  0  0  0  0  0  0  0
  -28.0530   -6.2690  -32.5100 C   0  0  0  0  0  0  0  0  0  0  0  0
  -28.4390   -5.2640  -31.6770 N   0  0  0  0  0  0  0  0  0  0  0  0
  -28.1750   -5.6090  -30.4270 N   0  0  0  0  0  0  0  0  0  0  0  0
  -28.1390   -4.8710  -29.1390 C   0  0  0  0  0  0  0  0  0  0  0  0
  -27.8710   -8.8780  -28.9850 C   0  0  2  0  0  0  0  0  0  0  0  0
  -29.2990   -8.8560  -29.4260 C   0  0  0  0  0  0  0  0  0  0  0  0
  -29.9270  -10.1700  -29.0400 C   0  0  0  0  0  0  0  0  0  0  0  0
  -29.0880  -10.6760  -27.9050 C   0  0  0  0  0  0  0  0  0  0  0  0
  -27.7390  -10.0090  -27.9970 C   0  0  0  0  0  0  0  0  0  0  0  0
  -29.5340   -4.9400  -28.4990 C   0  0  0  0  0  0  0  0  0  0  0  0
  1  2  2  0
  1  6  1  0
  1  3  1  0
  2  4  1  0
  8  3  1  1
  4  5  2  0
  5  6  1  0
  6  7  1  0
  8  9  1  0
  8 12  1  0
  9 10  1  0
 10 11  1  0
 11 12  1  0
  7 13  1  0
M  END
>  <name>  (425) 
Car Nac Nd0 Car Nac Nac Cs3 C3r C3r C3r C3r C3r Cs3

>  <indices>  (425) 
[0, 1, 2]

>  <tasks>  (425) 
probe_placing close_aromatic_ring close_aromatic_ring close_aromatic_ring ring_built build_to_Nac build_to_Nd0 close_aliphatic_ring close_aliphatic_ring close_aliphatic_ring close_aliphatic_ring

>  <prot_clashes>  (425) 
11

>  <NBS phar>  (425) 
0.0

>  <NBS_non-phar>  (425) 
0.4841909408569336

>  <NBS>  (425) 
0.4841909408569336

>  <source_stage>  (425) 
scored

>  <source_iter>  (425) 
10

>  <source_parent_mol>  (425) 
7

>  <source_scenario>  (425) 
1 2 3 1 0 7 4 8 8 7

>  <source_rank_in_scored_call>  (425) 
29

>  <source_current_task>  (425) 
no_task

>  <scenario>  (425) 
1 2 3 1 0 7 4 8 8

>  <protected_ring_attachments>  (425) 
3,1,0,2|1,0,2;4,5,0,2|5,0,2;9,8,7,2|8,7,2;10,11,7,2|11,7,2

>  <current_task>  (425) 
no_task

>  <rotatable_bond_torsions>  (425) 
1,0,2,7;0,2,7,8

$$$$

     RDKit          3D

 13 14  0  0  0  0  0  0  0  0999 V2000
  -27.6400   -6.8450  -30.3900 C   0  0  0  0  0  0  0  0  0  0  0  0
  -27.5500   -7.3370  -31.6590 N   0  0  0  0  0  0  0  0  0  0  0  0
  -27.0980   -7.6300  -29.2300 N   0  0  0  0  0  0  0  0  0  0  0  0
  -28.0730   -6.4320  -32.5050 C   0  0  0  0  0  0  0  0  0  0  0  0
  -28.4850   -5.3810  -31.7440 N   0  0  0  0  0  0  0  0  0  0  0  0
  -28.2230   -5.6350  -30.4720 N   0  0  0  0  0  0  0  0  0  0  0  0
  -28.2110   -4.8110  -29.2370 C   0  0  0  0  0  0  0  0  0  0  0  0
  -27.8630   -8.7920  -28.8100 C   0  0  2  0  0  0  0  0  0  0  0  0
  -29.2880   -8.8290  -29.2590 C   0  0  0  0  0  0  0  0  0  0  0  0
  -29.8920  -10.1260  -28.7890 C   0  0  0  0  0  0  0  0  0  0  0  0
  -29.0510  -10.5380  -27.6170 C   0  0  0  0  0  0  0  0  0  0  0  0
  -27.7150   -9.8500  -27.7470 C   0  0  0  0  0  0  0  0  0  0  0  0
  -29.5970   -4.8190  -28.6480 C   0  0  0  0  0  0  0  0  0  0  0  0
  1  2  2  0
  1  6  1  0
  1  3  1  0
  2  4  1  0
  8  3  1  1
  4  5  2  0
  5  6  1  0
  6  7  1  0
  8  9  1  0
  8 12  1  0
  9 10  1  0
 10 11  1  0
 11 12  1  0
  7 13  1  0
M  END
>  <name>  (426) 
Car Nac Nd0 Car Nac Nac Cs3 C3r C3r C3r C3r C3r Cs3

>  <indices>  (426) 
[0, 1, 2]

>  <tasks>  (426) 
probe_placing close_aromatic_ring close_aromatic_ring close_aromatic_ring ring_built build_to_Nac build_to_Nd0 close_aliphatic_ring close_aliphatic_ring close_aliphatic_ring close_aliphatic_ring

>  <prot_clashes>  (426) 
9

>  <NBS phar>  (426) 
0.0

>  <NBS_non-phar>  (426) 
0.4736786255469689

>  <NBS>  (426) 
0.4736786255469689

>  <source_stage>  (426) 
scored

>  <source_iter>  (426) 
10

>  <source_parent_mol>  (426) 
7

>  <source_scenario>  (426) 
1 2 3 1 0 7 4 8 8 7

>  <source_rank_in_scored_call>  (426) 
42

>  <source_current_task>  (426) 
no_task

>  <scenario>  (426) 
1 2 3 1 0 7 4 8 8

>  <protected_ring_attachments>  (426) 
3,1,0,2|1,0,2;4,5,0,2|5,0,2;9,8,7,2|8,7,2;10,11,7,2|11,7,2

>  <current_task>  (426) 
no_task

>  <rotatable_bond_torsions>  (426) 
1,0,2,7;0,2,7,8

$$$$

     RDKit          3D

 13 14  0  0  0  0  0  0  0  0999 V2000
  -27.7830   -6.8230  -30.6300 C   0  0  0  0  0  0  0  0  0  0  0  0
  -27.1440   -6.7220  -31.8310 N   0  0  0  0  0  0  0  0  0  0  0  0
  -27.4990   -7.9790  -29.7140 N   0  0  0  0  0  0  0  0  0  0  0  0
  -27.5470   -5.5890  -32.4340 C   0  0  0  0  0  0  0  0  0  0  0  0
  -28.4390   -4.9970  -31.5920 N   0  0  0  0  0  0  0  0  0  0  0  0
  -28.5770   -5.7440  -30.5090 N   0  0  0  0  0  0  0  0  0  0  0  0
  -29.1930   -5.5240  -29.1760 C   0  0  0  0  0  0  0  0  0  0  0  0
  -28.0550   -9.2670  -30.0920 C   0  0  2  0  0  0  0  0  0  0  0  0
  -29.1830   -9.2260  -31.0720 C   0  0  0  0  0  0  0  0  0  0  0  0
  -29.5770  -10.6450  -31.3910 C   0  0  0  0  0  0  0  0  0  0  0  0
  -29.1180  -11.4440  -30.2070 C   0  0  0  0  0  0  0  0  0  0  0  0
  -28.0300  -10.6610  -29.5180 C   0  0  0  0  0  0  0  0  0  0  0  0
  -29.1720   -3.9900  -28.6240 C   0  0  0  0  0  0  0  0  0  0  0  0
  1  2  2  0
  1  6  1  0
  1  3  1  0
  2  4  1  0
  8  3  1  1
  4  5  2  0
  5  6  1  0
  6  7  1  0
  8  9  1  0
  8 12  1  0
  9 10  1  0
 10 11  1  0
 11 12  1  0
  7 13  1  0
M  END
>  <name>  (427) 
Car Nac Nd0 Car Nac Nac Cs3 C3r C3r C3r C3r C3r Cs3

>  <indices>  (427) 
[0, 1, 2]

>  <tasks>  (427) 
probe_placing close_aromatic_ring close_aromatic_ring close_aromatic_ring ring_built build_to_Nac build_to_Nd0 close_aliphatic_ring close_aliphatic_ring close_aliphatic_ring close_aliphatic_ring

>  <prot_clashes>  (427) 
11

>  <NBS phar>  (427) 
0.12

>  <NBS_non-phar>  (427) 
0.33580347207876354

>  <NBS>  (427) 
0.45580347207876354

>  <source_stage>  (427) 
scored

>  <source_iter>  (427) 
10

>  <source_parent_mol>  (427) 
7

>  <source_scenario>  (427) 
1 2 3 1 0 7 4 8 8 7

>  <source_rank_in_scored_call>  (427) 
71

>  <source_current_task>  (427) 
no_task

>  <scenario>  (427) 
1 2 3 1 0 7 4 8 8

>  <protected_ring_attachments>  (427) 
3,1,0,2|1,0,2;4,5,0,2|5,0,2;9,8,7,2|8,7,2;10,11,7,2|11,7,2

>  <current_task>  (427) 
no_task

>  <rotatable_bond_torsions>  (427) 
1,0,2,7;0,2,7,8

$$$$

     RDKit          3D

 13 14  0  0  0  0  0  0  0  0999 V2000
  -27.7090   -6.9560  -30.7350 C   0  0  0  0  0  0  0  0  0  0  0  0
  -27.2280   -6.8180  -32.0040 N   0  0  0  0  0  0  0  0  0  0  0  0
  -27.3260   -8.1460  -29.9030 N   0  0  0  0  0  0  0  0  0  0  0  0
  -27.6880   -5.6610  -32.5110 C   0  0  0  0  0  0  0  0  0  0  0  0
  -28.4560   -5.0900  -31.5420 N   0  0  0  0  0  0  0  0  0  0  0  0
  -28.4660   -5.8740  -30.4760 N   0  0  0  0  0  0  0  0  0  0  0  0
  -28.9020   -5.6950  -29.0680 C   0  0  0  0  0  0  0  0  0  0  0  0
  -27.9450   -9.4150  -30.2510 C   0  0  2  0  0  0  0  0  0  0  0  0
  -29.1880   -9.3280  -31.0760 C   0  0  0  0  0  0  0  0  0  0  0  0
  -29.6400  -10.7300  -31.3890 C   0  0  0  0  0  0  0  0  0  0  0  0
  -29.0450  -11.5760  -30.3030 C   0  0  0  0  0  0  0  0  0  0  0  0
  -27.8660  -10.8280  -29.7320 C   0  0  0  0  0  0  0  0  0  0  0  0
  -29.0680   -4.1300  -28.8250 C   0  0  0  0  0  0  0  0  0  0  0  0
  1  2  2  0
  1  6  1  0
  1  3  1  0
  2  4  1  0
  8  3  1  1
  4  5  2  0
  5  6  1  0
  6  7  1  0
  8  9  1  0
  8 12  1  0
  9 10  1  0
 10 11  1  0
 11 12  1  0
  7 13  1  0
M  END
>  <name>  (428) 
Car Nac Nd0 Car Nac Nac Cs3 C3r C3r C3r C3r C3r Cs3

>  <indices>  (428) 
[0, 1, 2]

>  <tasks>  (428) 
probe_placing close_aromatic_ring close_aromatic_ring close_aromatic_ring ring_built build_to_Nac build_to_Nd0 close_aliphatic_ring close_aliphatic_ring close_aliphatic_ring close_aliphatic_ring

>  <prot_clashes>  (428) 
11

>  <NBS phar>  (428) 
0.12

>  <NBS_non-phar>  (428) 
0.31586650701669544

>  <NBS>  (428) 
0.43586650701669544

>  <source_stage>  (428) 
scored

>  <source_iter>  (428) 
10

>  <source_parent_mol>  (428) 
7

>  <source_scenario>  (428) 
1 2 3 1 0 7 4 8 8 7

>  <source_rank_in_scored_call>  (428) 
99

>  <source_current_task>  (428) 
no_task

>  <scenario>  (428) 
1 2 3 1 0 7 4 8 8

>  <protected_ring_attachments>  (428) 
3,1,0,2|1,0,2;4,5,0,2|5,0,2;9,8,7,2|8,7,2;10,11,7,2|11,7,2

>  <current_task>  (428) 
no_task

>  <rotatable_bond_torsions>  (428) 
1,0,2,7;0,2,7,8

$$$$

     RDKit          3D

 13 14  0  0  0  0  0  0  0  0999 V2000
  -27.6930   -6.9620  -30.7450 C   0  0  0  0  0  0  0  0  0  0  0  0
  -27.2340   -6.8200  -32.0220 N   0  0  0  0  0  0  0  0  0  0  0  0
  -27.3060   -8.1620  -29.9280 N   0  0  0  0  0  0  0  0  0  0  0  0
  -27.6930   -5.6550  -32.5110 C   0  0  0  0  0  0  0  0  0  0  0  0
  -28.4380   -5.0850  -31.5250 N   0  0  0  0  0  0  0  0  0  0  0  0
  -28.4350   -5.8760  -30.4640 N   0  0  0  0  0  0  0  0  0  0  0  0
  -28.8440   -5.7030  -29.0480 C   0  0  0  0  0  0  0  0  0  0  0  0
  -27.9420   -9.4220  -30.2730 C   0  0  2  0  0  0  0  0  0  0  0  0
  -29.2000   -9.3180  -31.0750 C   0  0  0  0  0  0  0  0  0  0  0  0
  -29.6700  -10.7140  -31.3890 C   0  0  0  0  0  0  0  0  0  0  0  0
  -29.0630  -11.5730  -30.3200 C   0  0  0  0  0  0  0  0  0  0  0  0
  -27.8670  -10.8400  -29.7660 C   0  0  0  0  0  0  0  0  0  0  0  0
  -29.1890   -4.2540  -28.6900 C   0  0  0  0  0  0  0  0  0  0  0  0
  1  2  2  0
  1  6  1  0
  1  3  1  0
  2  4  1  0
  8  3  1  1
  4  5  2  0
  5  6  1  0
  6  7  1  0
  8  9  1  0
  8 12  1  0
  9 10  1  0
 10 11  1  0
 11 12  1  0
  7 13  1  0
M  END
>  <name>  (429) 
Car Nac Nd0 Car Nac Nac Cs3 C3r C3r C3r C3r C3r Cs3

>  <indices>  (429) 
[0, 1, 2]

>  <tasks>  (429) 
probe_placing close_aromatic_ring close_aromatic_ring close_aromatic_ring ring_built build_to_Nac build_to_Nd0 close_aliphatic_ring close_aliphatic_ring close_aliphatic_ring close_aliphatic_ring

>  <prot_clashes>  (429) 
11

>  <NBS phar>  (429) 
0.12

>  <NBS_non-phar>  (429) 
0.3095754109896146

>  <NBS>  (429) 
0.4295754109896146

>  <source_stage>  (429) 
scored

>  <source_iter>  (429) 
10

>  <source_parent_mol>  (429) 
7

>  <source_scenario>  (429) 
1 2 3 1 0 7 4 8 8 7

>  <source_rank_in_scored_call>  (429) 
105

>  <source_current_task>  (429) 
no_task

>  <scenario>  (429) 
1 2 3 1 0 7 4 8 8

>  <protected_ring_attachments>  (429) 
3,1,0,2|1,0,2;4,5,0,2|5,0,2;9,8,7,2|8,7,2;10,11,7,2|11,7,2

>  <current_task>  (429) 
no_task

>  <rotatable_bond_torsions>  (429) 
1,0,2,7;0,2,7,8

$$$$

     RDKit          3D

 13 14  0  0  0  0  0  0  0  0999 V2000
  -27.6990   -6.9970  -30.8600 C   0  0  0  0  0  0  0  0  0  0  0  0
  -27.3080   -6.7270  -32.1380 N   0  0  0  0  0  0  0  0  0  0  0  0
  -27.2550   -8.2610  -30.1810 N   0  0  0  0  0  0  0  0  0  0  0  0
  -27.8080   -5.5290  -32.4920 C   0  0  0  0  0  0  0  0  0  0  0  0
  -28.5090   -5.0680  -31.4200 N   0  0  0  0  0  0  0  0  0  0  0  0
  -28.4410   -5.9550  -30.4410 N   0  0  0  0  0  0  0  0  0  0  0  0
  -28.7790   -5.9250  -28.9950 C   0  0  0  0  0  0  0  0  0  0  0  0
  -27.8910   -9.4940  -30.6120 C   0  0  2  0  0  0  0  0  0  0  0  0
  -29.1890   -9.3380  -31.3370 C   0  0  0  0  0  0  0  0  0  0  0  0
  -29.6550  -10.7070  -31.7590 C   0  0  0  0  0  0  0  0  0  0  0  0
  -28.9830  -11.6510  -30.8080 C   0  0  0  0  0  0  0  0  0  0  0  0
  -27.7700  -10.9520  -30.2470 C   0  0  0  0  0  0  0  0  0  0  0  0
  -28.4020   -7.1160  -28.1110 C   0  0  0  0  0  0  0  0  0  0  0  0
  1  2  2  0
  1  6  1  0
  1  3  1  0
  2  4  1  0
  8  3  1  1
  4  5  2  0
  5  6  1  0
  6  7  1  0
  8  9  1  0
  8 12  1  0
  9 10  1  0
 10 11  1  0
 11 12  1  0
  7 13  1  0
M  END
>  <name>  (430) 
Car Nac Nd0 Car Nac Nac Cs3 C3r C3r C3r C3r C3r Cs3

>  <indices>  (430) 
[0, 1, 2]

>  <tasks>  (430) 
probe_placing close_aromatic_ring close_aromatic_ring close_aromatic_ring ring_built build_to_Nac build_to_Nd0 close_aliphatic_ring close_aliphatic_ring close_aliphatic_ring close_aliphatic_ring

>  <prot_clashes>  (430) 
12

>  <NBS phar>  (430) 
0.1

>  <NBS_non-phar>  (430) 
0.31778643681452823

>  <NBS>  (430) 
0.4177864368145282

>  <source_stage>  (430) 
scored

>  <source_iter>  (430) 
10

>  <source_parent_mol>  (430) 
7

>  <source_scenario>  (430) 
1 2 3 1 0 7 4 8 8 7

>  <source_rank_in_scored_call>  (430) 
117

>  <source_current_task>  (430) 
no_task

>  <scenario>  (430) 
1 2 3 1 0 7 4 8 8

>  <protected_ring_attachments>  (430) 
3,1,0,2|1,0,2;4,5,0,2|5,0,2;9,8,7,2|8,7,2;10,11,7,2|11,7,2

>  <current_task>  (430) 
no_task

>  <rotatable_bond_torsions>  (430) 
1,0,2,7;0,2,7,8

$$$$

     RDKit          3D

 13 14  0  0  0  0  0  0  0  0999 V2000
  -27.6060   -6.9640  -30.8200 C   0  0  0  0  0  0  0  0  0  0  0  0
  -27.3010   -6.7790  -32.1360 N   0  0  0  0  0  0  0  0  0  0  0  0
  -27.2010   -8.2280  -30.1170 N   0  0  0  0  0  0  0  0  0  0  0  0
  -27.7390   -5.5630  -32.5080 C   0  0  0  0  0  0  0  0  0  0  0  0
  -28.3170   -5.0050  -31.4080 N   0  0  0  0  0  0  0  0  0  0  0  0
  -28.2350   -5.8530  -30.3960 N   0  0  0  0  0  0  0  0  0  0  0  0
  -28.4530   -5.7350  -28.9320 C   0  0  0  0  0  0  0  0  0  0  0  0
  -27.9570   -9.4270  -30.4390 C   0  0  2  0  0  0  0  0  0  0  0  0
  -29.2940   -9.2050  -31.0680 C   0  0  0  0  0  0  0  0  0  0  0  0
  -29.8900  -10.5510  -31.3870 C   0  0  0  0  0  0  0  0  0  0  0  0
  -29.2130  -11.5020  -30.4460 C   0  0  0  0  0  0  0  0  0  0  0  0
  -27.9120  -10.8730  -30.0140 C   0  0  0  0  0  0  0  0  0  0  0  0
  -29.5640   -4.7620  -28.5970 C   0  0  0  0  0  0  0  0  0  0  0  0
  1  2  2  0
  1  6  1  0
  1  3  1  0
  2  4  1  0
  8  3  1  1
  4  5  2  0
  5  6  1  0
  6  7  1  0
  8  9  1  0
  8 12  1  0
  9 10  1  0
 10 11  1  0
 11 12  1  0
  7 13  1  0
M  END
>  <name>  (431) 
Car Nac Nd0 Car Nac Nac Cs3 C3r C3r C3r C3r C3r Cs3

>  <indices>  (431) 
[0, 1, 2]

>  <tasks>  (431) 
probe_placing close_aromatic_ring close_aromatic_ring close_aromatic_ring ring_built build_to_Nac build_to_Nd0 close_aliphatic_ring close_aliphatic_ring close_aliphatic_ring close_aliphatic_ring

>  <prot_clashes>  (431) 
11

>  <NBS phar>  (431) 
0.12

>  <NBS_non-phar>  (431) 
0.24787088540884164

>  <NBS>  (431) 
0.3678708854088416

>  <source_stage>  (431) 
scored

>  <source_iter>  (431) 
10

>  <source_parent_mol>  (431) 
7

>  <source_scenario>  (431) 
1 2 3 1 0 7 4 8 8 7

>  <source_rank_in_scored_call>  (431) 
156

>  <source_current_task>  (431) 
no_task

>  <scenario>  (431) 
1 2 3 1 0 7 4 8 8

>  <protected_ring_attachments>  (431) 
3,1,0,2|1,0,2;4,5,0,2|5,0,2;9,8,7,2|8,7,2;10,11,7,2|11,7,2

>  <current_task>  (431) 
no_task

>  <rotatable_bond_torsions>  (431) 
1,0,2,7;0,2,7,8

$$$$

     RDKit          3D

 15 16  0  0  0  0  0  0  0  0999 V2000
  -27.8440   -7.9790  -31.4030 C   0  0  0  0  0  0  0  0  0  0  0  0
  -28.0650   -7.1510  -32.4640 N   0  0  0  0  0  0  0  0  0  0  0  0
  -27.4830   -9.4200  -31.6220 N   0  0  0  0  0  0  0  0  0  0  0  0
  -28.3330   -5.9220  -31.9980 C   0  0  0  0  0  0  0  0  0  0  0  0
  -28.2770   -6.0030  -30.6400 N   0  0  0  0  0  0  0  0  0  0  0  0
  -27.9820   -7.2400  -30.2860 N   0  0  0  0  0  0  0  0  0  0  0  0
  -27.7750   -7.7310  -28.9650 C   0  0  0  0  0  0  0  0  0  0  0  0
  -26.6450   -8.4220  -28.5670 C   0  0  0  0  0  0  0  0  0  0  0  0
  -26.5710   -8.9610  -27.3240 C   0  0  0  0  0  0  0  0  0  0  0  0
  -27.5750   -8.8570  -26.4140 C   0  0  0  0  0  0  0  0  0  0  0  0
  -28.8130   -7.6200  -28.0360 C   0  0  0  0  0  0  0  0  0  0  0  0
  -28.7170   -8.1750  -26.7760 C   0  0  0  0  0  0  0  0  0  0  0  0
  -28.4680  -10.2830  -31.7640 C   0  0  0  0  0  0  0  0  0  0  0  0
  -29.6860  -10.1560  -31.8940 O   0  0  0  0  0  0  0  0  0  0  0  0
  -28.0640  -11.7890  -31.8080 C   0  0  0  0  0  0  0  0  0  0  0  0
  1  2  2  0
  1  3  1  0
  1  6  1  0
  2  4  1  0
  3 13  1  0
  4  5  2  0
  5  6  1  0
  6  7  1  0
 13 14  2  0
 13 15  1  0
  7  8  2  0
  7 11  1  0
  8  9  1  0
  9 10  2  0
 10 12  1  0
 11 12  2  0
M  END
>  <name>  (432) 
Car Nac Nd0 Car Nac Nac Car Car Car Car Car Car Cs2 .=O Cs3

>  <indices>  (432) 
[0, 1, 2]

>  <tasks>  (432) 
probe_placing close_aromatic_ring close_aromatic_ring close_aromatic_ring ring_built build_to_Nac close_aromatic_ring close_aromatic_ring close_aromatic_ring close_aromatic_ring close_aromatic_ring build_to_Nd0 build_DB_to_Cs2

>  <prot_clashes>  (432) 
8

>  <NBS phar>  (432) 
0.34

>  <NBS_non-phar>  (432) 
0.5650403340657552

>  <NBS>  (432) 
0.9050403340657551

>  <source_stage>  (432) 
scored

>  <source_iter>  (432) 
12

>  <source_parent_mol>  (432) 
0

>  <source_scenario>  (432) 
1 2 3 1 4 7 5 0 0 0 1 0

>  <source_rank_in_scored_call>  (432) 
2

>  <source_current_task>  (432) 
build_SB_to_Cs2

>  <scenario>  (432) 
1 2 3 1 4 7 5 0 0 0 1

>  <protected_ring_attachments>  (432) 
1,0,5,6|0,5,6;3,1,0,2|1,0,2;3,4,5,6|4,5,6;4,5,0,2|5,0,2

>  <current_task>  (432) 
no_task

>  <rotatable_bond_torsions>  (432) 
1,0,2,12;0,2,12,13;0,5,6,7

$$$$

     RDKit          3D

 16 17  0  0  0  0  0  0  0  0999 V2000
  -27.8650   -8.1380  -31.3840 C   0  0  0  0  0  0  0  0  0  0  0  0
  -28.0740   -7.3540  -32.4800 N   0  0  0  0  0  0  0  0  0  0  0  0
  -27.5240   -9.5920  -31.5400 N   0  0  0  0  0  0  0  0  0  0  0  0
  -28.3250   -6.1020  -32.0670 C   0  0  0  0  0  0  0  0  0  0  0  0
  -28.2700   -6.1250  -30.7070 N   0  0  0  0  0  0  0  0  0  0  0  0
  -27.9930   -7.3500  -30.3000 N   0  0  0  0  0  0  0  0  0  0  0  0
  -27.7930   -7.7860  -28.9590 C   0  0  0  0  0  0  0  0  0  0  0  0
  -26.6730   -8.4750  -28.5300 C   0  0  0  0  0  0  0  0  0  0  0  0
  -26.6070   -8.9610  -27.2650 C   0  0  0  0  0  0  0  0  0  0  0  0
  -27.6100   -8.8030  -26.3610 C   0  0  0  0  0  0  0  0  0  0  0  0
  -28.8300   -7.6200  -28.0360 C   0  0  0  0  0  0  0  0  0  0  0  0
  -28.7420   -8.1220  -26.7530 C   0  0  0  0  0  0  0  0  0  0  0  0
  -28.5210  -10.4470  -31.6450 C   0  0  0  0  0  0  0  0  0  0  0  0
  -29.7370  -10.3080  -31.7820 O   0  0  0  0  0  0  0  0  0  0  0  0
  -28.1390  -11.9590  -31.6240 C   0  0  0  0  0  0  0  0  0  0  0  0
  -28.4450  -12.6790  -32.9030 C   0  0  0  0  0  0  0  0  0  0  0  0
  1  2  2  0
  1  3  1  0
  1  6  1  0
  2  4  1  0
  3 13  1  0
  4  5  2  0
  5  6  1  0
  6  7  1  0
 13 14  2  0
 13 15  1  0
  7  8  2  0
  7 11  1  0
  8  9  1  0
  9 10  2  0
 10 12  1  0
 11 12  2  0
 15 16  1  0
M  END
>  <name>  (433) 
Car Nac Nd0 Car Nac Nac Car Car Car Car Car Car Cs2 .=O Cs3 Cs3

>  <indices>  (433) 
[0, 1, 2]

>  <tasks>  (433) 
probe_placing close_aromatic_ring close_aromatic_ring close_aromatic_ring ring_built build_to_Nac close_aromatic_ring close_aromatic_ring close_aromatic_ring close_aromatic_ring close_aromatic_ring build_to_Nd0 build_DB_to_Cs2 build_SB_to_Cs2

>  <prot_clashes>  (433) 
7

>  <NBS phar>  (433) 
0.36000000000000004

>  <NBS_non-phar>  (433) 
0.5938787460327148

>  <NBS>  (433) 
0.9538787460327149

>  <source_stage>  (433) 
scored

>  <source_iter>  (433) 
13

>  <source_parent_mol>  (433) 
1

>  <source_scenario>  (433) 
1 2 3 1 4 7 5 0 0 0 1 0 1

>  <source_rank_in_scored_call>  (433) 
5

>  <source_current_task>  (433) 
no_task

>  <scenario>  (433) 
1 2 3 1 4 7 5 0 0 0 1 0

>  <protected_ring_attachments>  (433) 
1,0,5,6|0,5,6;3,1,0,2|1,0,2;3,4,5,6|4,5,6;4,5,0,2|5,0,2

>  <current_task>  (433) 
no_task

>  <rotatable_bond_torsions>  (433) 
1,0,2,12;0,2,12,14;0,5,6,7

$$$$

     RDKit          3D

 16 17  0  0  0  0  0  0  0  0999 V2000
  -27.8390   -7.9810  -31.4020 C   0  0  0  0  0  0  0  0  0  0  0  0
  -28.0640   -7.1540  -32.4640 N   0  0  0  0  0  0  0  0  0  0  0  0
  -27.4700   -9.4200  -31.6210 N   0  0  0  0  0  0  0  0  0  0  0  0
  -28.3390   -5.9270  -31.9980 C   0  0  0  0  0  0  0  0  0  0  0  0
  -28.2840   -6.0070  -30.6400 N   0  0  0  0  0  0  0  0  0  0  0  0
  -27.9820   -7.2420  -30.2860 N   0  0  0  0  0  0  0  0  0  0  0  0
  -27.7740   -7.7320  -28.9640 C   0  0  0  0  0  0  0  0  0  0  0  0
  -26.6400   -8.4160  -28.5650 C   0  0  0  0  0  0  0  0  0  0  0  0
  -26.5640   -8.9550  -27.3220 C   0  0  0  0  0  0  0  0  0  0  0  0
  -27.5700   -8.8560  -26.4130 C   0  0  0  0  0  0  0  0  0  0  0  0
  -28.8130   -7.6260  -28.0360 C   0  0  0  0  0  0  0  0  0  0  0  0
  -28.7150   -8.1800  -26.7760 C   0  0  0  0  0  0  0  0  0  0  0  0
  -28.4500  -10.2880  -31.7630 C   0  0  0  0  0  0  0  0  0  0  0  0
  -29.6690  -10.1680  -31.8940 O   0  0  0  0  0  0  0  0  0  0  0  0
  -28.0380  -11.7920  -31.8070 C   0  0  0  0  0  0  0  0  0  0  0  0
  -29.0340  -12.7880  -31.2870 C   0  0  0  0  0  0  0  0  0  0  0  0
  1  2  2  0
  1  3  1  0
  1  6  1  0
  2  4  1  0
  3 13  1  0
  4  5  2  0
  5  6  1  0
  6  7  1  0
 13 14  2  0
 13 15  1  0
  7  8  2  0
  7 11  1  0
  8  9  1  0
  9 10  2  0
 10 12  1  0
 11 12  2  0
 15 16  1  0
M  END
>  <name>  (434) 
Car Nac Nd0 Car Nac Nac Car Car Car Car Car Car Cs2 .=O Cs3 Cs3

>  <indices>  (434) 
[0, 1, 2]

>  <tasks>  (434) 
probe_placing close_aromatic_ring close_aromatic_ring close_aromatic_ring ring_built build_to_Nac close_aromatic_ring close_aromatic_ring close_aromatic_ring close_aromatic_ring close_aromatic_ring build_to_Nd0 build_DB_to_Cs2 build_SB_to_Cs2

>  <prot_clashes>  (434) 
10

>  <NBS phar>  (434) 
0.34

>  <NBS_non-phar>  (434) 
0.5890973806381226

>  <NBS>  (434) 
0.9290973806381226

>  <source_stage>  (434) 
scored

>  <source_iter>  (434) 
13

>  <source_parent_mol>  (434) 
1

>  <source_scenario>  (434) 
1 2 3 1 4 7 5 0 0 0 1 0 1

>  <source_rank_in_scored_call>  (434) 
6

>  <source_current_task>  (434) 
no_task

>  <scenario>  (434) 
1 2 3 1 4 7 5 0 0 0 1 0

>  <protected_ring_attachments>  (434) 
1,0,5,6|0,5,6;3,1,0,2|1,0,2;3,4,5,6|4,5,6;4,5,0,2|5,0,2

>  <current_task>  (434) 
no_task

>  <rotatable_bond_torsions>  (434) 
1,0,2,12;0,2,12,14;0,5,6,7

$$$$

     RDKit          3D

 16 17  0  0  0  0  0  0  0  0999 V2000
  -27.8320   -8.1020  -31.3920 C   0  0  0  0  0  0  0  0  0  0  0  0
  -28.0690   -7.3110  -32.4780 N   0  0  0  0  0  0  0  0  0  0  0  0
  -27.4220   -9.5360  -31.5670 N   0  0  0  0  0  0  0  0  0  0  0  0
  -28.3810   -6.0790  -32.0490 C   0  0  0  0  0  0  0  0  0  0  0  0
  -28.3370   -6.1210  -30.6890 N   0  0  0  0  0  0  0  0  0  0  0  0
  -28.0060   -7.3370  -30.2980 N   0  0  0  0  0  0  0  0  0  0  0  0
  -27.7970   -7.7840  -28.9610 C   0  0  0  0  0  0  0  0  0  0  0  0
  -26.6490   -8.4260  -28.5330 C   0  0  0  0  0  0  0  0  0  0  0  0
  -26.5710   -8.9280  -27.2750 C   0  0  0  0  0  0  0  0  0  0  0  0
  -27.5870   -8.8310  -26.3780 C   0  0  0  0  0  0  0  0  0  0  0  0
  -28.8470   -7.6810  -28.0460 C   0  0  0  0  0  0  0  0  0  0  0  0
  -28.7470   -8.1970  -26.7700 C   0  0  0  0  0  0  0  0  0  0  0  0
  -28.3770  -10.4340  -31.6940 C   0  0  0  0  0  0  0  0  0  0  0  0
  -29.5970  -10.3510  -31.8390 O   0  0  0  0  0  0  0  0  0  0  0  0
  -27.9250  -11.9270  -31.6910 C   0  0  0  0  0  0  0  0  0  0  0  0
  -28.8270  -12.7280  -32.5640 C   0  0  0  0  0  0  0  0  0  0  0  0
  1  2  2  0
  1  3  1  0
  1  6  1  0
  2  4  1  0
  3 13  1  0
  4  5  2  0
  5  6  1  0
  6  7  1  0
 13 14  2  0
 13 15  1  0
  7  8  2  0
  7 11  1  0
  8  9  1  0
  9 10  2  0
 10 12  1  0
 11 12  2  0
 15 16  1  0
M  END
>  <name>  (435) 
Car Nac Nd0 Car Nac Nac Car Car Car Car Car Car Cs2 .=O Cs3 Cs3

>  <indices>  (435) 
[0, 1, 2]

>  <tasks>  (435) 
probe_placing close_aromatic_ring close_aromatic_ring close_aromatic_ring ring_built build_to_Nac close_aromatic_ring close_aromatic_ring close_aromatic_ring close_aromatic_ring close_aromatic_ring build_to_Nd0 build_DB_to_Cs2 build_SB_to_Cs2

>  <prot_clashes>  (435) 
9

>  <NBS phar>  (435) 
0.36000000000000004

>  <NBS_non-phar>  (435) 
0.567686140537262

>  <NBS>  (435) 
0.9276861405372621

>  <source_stage>  (435) 
scored

>  <source_iter>  (435) 
13

>  <source_parent_mol>  (435) 
1

>  <source_scenario>  (435) 
1 2 3 1 4 7 5 0 0 0 1 0 1

>  <source_rank_in_scored_call>  (435) 
8

>  <source_current_task>  (435) 
no_task

>  <scenario>  (435) 
1 2 3 1 4 7 5 0 0 0 1 0

>  <protected_ring_attachments>  (435) 
1,0,5,6|0,5,6;3,1,0,2|1,0,2;3,4,5,6|4,5,6;4,5,0,2|5,0,2

>  <current_task>  (435) 
no_task

>  <rotatable_bond_torsions>  (435) 
1,0,2,12;0,2,12,14;0,5,6,7

$$$$

     RDKit          3D

 16 17  0  0  0  0  0  0  0  0999 V2000
  -27.8430   -7.9810  -31.4020 C   0  0  0  0  0  0  0  0  0  0  0  0
  -28.0630   -7.1530  -32.4630 N   0  0  0  0  0  0  0  0  0  0  0  0
  -27.4820   -9.4220  -31.6210 N   0  0  0  0  0  0  0  0  0  0  0  0
  -28.3310   -5.9240  -31.9980 C   0  0  0  0  0  0  0  0  0  0  0  0
  -28.2760   -6.0040  -30.6400 N   0  0  0  0  0  0  0  0  0  0  0  0
  -27.9810   -7.2410  -30.2850 N   0  0  0  0  0  0  0  0  0  0  0  0
  -27.7750   -7.7320  -28.9640 C   0  0  0  0  0  0  0  0  0  0  0  0
  -26.6450   -8.4230  -28.5660 C   0  0  0  0  0  0  0  0  0  0  0  0
  -26.5720   -8.9620  -27.3220 C   0  0  0  0  0  0  0  0  0  0  0  0
  -27.5760   -8.8570  -26.4130 C   0  0  0  0  0  0  0  0  0  0  0  0
  -28.8130   -7.6210  -28.0360 C   0  0  0  0  0  0  0  0  0  0  0  0
  -28.7180   -8.1750  -26.7750 C   0  0  0  0  0  0  0  0  0  0  0  0
  -28.4670  -10.2850  -31.7630 C   0  0  0  0  0  0  0  0  0  0  0  0
  -29.6850  -10.1580  -31.8930 O   0  0  0  0  0  0  0  0  0  0  0  0
  -28.0630  -11.7910  -31.8060 C   0  0  0  0  0  0  0  0  0  0  0  0
  -29.1390  -12.6320  -31.0660 C   0  0  0  0  0  0  0  0  0  0  0  0
  1  2  2  0
  1  3  1  0
  1  6  1  0
  2  4  1  0
  3 13  1  0
  4  5  2  0
  5  6  1  0
  6  7  1  0
 13 14  2  0
 13 15  1  0
  7  8  2  0
  7 11  1  0
  8  9  1  0
  9 10  2  0
 10 12  1  0
 11 12  2  0
 15 16  1  0
M  END
>  <name>  (436) 
Car Nac Nd0 Car Nac Nac Car Car Car Car Car Car Cs2 .=O Cs3 Cs3

>  <indices>  (436) 
[0, 1, 2]

>  <tasks>  (436) 
probe_placing close_aromatic_ring close_aromatic_ring close_aromatic_ring ring_built build_to_Nac close_aromatic_ring close_aromatic_ring close_aromatic_ring close_aromatic_ring close_aromatic_ring build_to_Nd0 build_DB_to_Cs2 build_SB_to_Cs2

>  <prot_clashes>  (436) 
9

>  <NBS phar>  (436) 
0.34

>  <NBS_non-phar>  (436) 
0.5870736837387085

>  <NBS>  (436) 
0.9270736837387086

>  <source_stage>  (436) 
scored

>  <source_iter>  (436) 
13

>  <source_parent_mol>  (436) 
1

>  <source_scenario>  (436) 
1 2 3 1 4 7 5 0 0 0 1 0 1

>  <source_rank_in_scored_call>  (436) 
9

>  <source_current_task>  (436) 
no_task

>  <scenario>  (436) 
1 2 3 1 4 7 5 0 0 0 1 0

>  <protected_ring_attachments>  (436) 
1,0,5,6|0,5,6;3,1,0,2|1,0,2;3,4,5,6|4,5,6;4,5,0,2|5,0,2

>  <current_task>  (436) 
no_task

>  <rotatable_bond_torsions>  (436) 
1,0,2,12;0,2,12,14;0,5,6,7

$$$$

     RDKit          3D

 16 17  0  0  0  0  0  0  0  0999 V2000
  -27.8560   -7.9910  -31.4190 C   0  0  0  0  0  0  0  0  0  0  0  0
  -28.0380   -7.1810  -32.5010 N   0  0  0  0  0  0  0  0  0  0  0  0
  -27.4890   -9.4350  -31.6010 N   0  0  0  0  0  0  0  0  0  0  0  0
  -28.3210   -5.9440  -32.0660 C   0  0  0  0  0  0  0  0  0  0  0  0
  -28.3140   -6.0020  -30.7060 N   0  0  0  0  0  0  0  0  0  0  0  0
  -28.0340   -7.2330  -30.3210 N   0  0  0  0  0  0  0  0  0  0  0  0
  -27.8750   -7.7020  -28.9850 C   0  0  0  0  0  0  0  0  0  0  0  0
  -26.7610   -8.3870  -28.5350 C   0  0  0  0  0  0  0  0  0  0  0  0
  -26.7330   -8.9050  -27.2810 C   0  0  0  0  0  0  0  0  0  0  0  0
  -27.7690   -8.7850  -26.4100 C   0  0  0  0  0  0  0  0  0  0  0  0
  -28.9460   -7.5750  -28.0960 C   0  0  0  0  0  0  0  0  0  0  0  0
  -28.8960   -8.1090  -26.8240 C   0  0  0  0  0  0  0  0  0  0  0  0
  -28.4700  -10.3000  -31.7640 C   0  0  0  0  0  0  0  0  0  0  0  0
  -29.6820  -10.1750  -31.9400 O   0  0  0  0  0  0  0  0  0  0  0  0
  -28.0660  -11.8070  -31.7680 C   0  0  0  0  0  0  0  0  0  0  0  0
  -27.6870   -9.3770  -25.0250 C   0  0  0  0  0  0  0  0  0  0  0  0
  1  2  2  0
  1  3  1  0
  1  6  1  0
  2  4  1  0
  3 13  1  0
  4  5  2  0
  5  6  1  0
  6  7  1  0
 13 14  2  0
 13 15  1  0
  7  8  2  0
  7 11  1  0
  8  9  1  0
  9 10  2  0
 10 12  1  0
 10 16  1  0
 11 12  2  0
M  END
>  <name>  (437) 
Car Nac Nd0 Car Nac Nac Car Car Car Car Car Car Cs2 .=O Cs3 Cs3

>  <indices>  (437) 
[0, 1, 2]

>  <tasks>  (437) 
probe_placing close_aromatic_ring close_aromatic_ring close_aromatic_ring ring_built build_to_Nac close_aromatic_ring close_aromatic_ring close_aromatic_ring close_aromatic_ring close_aromatic_ring build_to_Nd0 build_DB_to_Cs2 build_SB_to_Cs2

>  <prot_clashes>  (437) 
6

>  <NBS phar>  (437) 
0.32

>  <NBS_non-phar>  (437) 
0.5936299562454224

>  <NBS>  (437) 
0.9136299562454224

>  <source_stage>  (437) 
scored

>  <source_iter>  (437) 
13

>  <source_parent_mol>  (437) 
1

>  <source_scenario>  (437) 
1 2 3 1 4 7 5 0 0 0 1 0 1

>  <source_rank_in_scored_call>  (437) 
10

>  <source_current_task>  (437) 
no_task

>  <scenario>  (437) 
1 2 3 1 4 7 5 0 0 0 1 0

>  <protected_ring_attachments>  (437) 
1,0,5,6|0,5,6;3,1,0,2|1,0,2;3,4,5,6|4,5,6;4,5,0,2|5,0,2

>  <current_task>  (437) 
no_task

>  <rotatable_bond_torsions>  (437) 
1,0,2,12;0,2,12,14;0,5,6,7

$$$$

     RDKit          3D

 16 17  0  0  0  0  0  0  0  0999 V2000
  -27.8430   -7.9790  -31.4020 C   0  0  0  0  0  0  0  0  0  0  0  0
  -28.0640   -7.1510  -32.4630 N   0  0  0  0  0  0  0  0  0  0  0  0
  -27.4820   -9.4200  -31.6210 N   0  0  0  0  0  0  0  0  0  0  0  0
  -28.3320   -5.9220  -31.9970 C   0  0  0  0  0  0  0  0  0  0  0  0
  -28.2760   -6.0040  -30.6390 N   0  0  0  0  0  0  0  0  0  0  0  0
  -27.9810   -7.2410  -30.2850 N   0  0  0  0  0  0  0  0  0  0  0  0
  -27.7750   -7.7320  -28.9640 C   0  0  0  0  0  0  0  0  0  0  0  0
  -26.6450   -8.4230  -28.5660 C   0  0  0  0  0  0  0  0  0  0  0  0
  -26.5710   -8.9620  -27.3230 C   0  0  0  0  0  0  0  0  0  0  0  0
  -27.5760   -8.8580  -26.4130 C   0  0  0  0  0  0  0  0  0  0  0  0
  -28.8130   -7.6210  -28.0360 C   0  0  0  0  0  0  0  0  0  0  0  0
  -28.7180   -8.1760  -26.7760 C   0  0  0  0  0  0  0  0  0  0  0  0
  -28.4670  -10.2830  -31.7640 C   0  0  0  0  0  0  0  0  0  0  0  0
  -29.6850  -10.1560  -31.8940 O   0  0  0  0  0  0  0  0  0  0  0  0
  -28.0630  -11.7890  -31.8080 C   0  0  0  0  0  0  0  0  0  0  0  0
  -28.7510  -12.6490  -30.7890 C   0  0  0  0  0  0  0  0  0  0  0  0
  1  2  2  0
  1  3  1  0
  1  6  1  0
  2  4  1  0
  3 13  1  0
  4  5  2  0
  5  6  1  0
  6  7  1  0
 13 14  2  0
 13 15  1  0
  7  8  2  0
  7 11  1  0
  8  9  1  0
  9 10  2  0
 10 12  1  0
 11 12  2  0
 15 16  1  0
M  END
>  <name>  (438) 
Car Nac Nd0 Car Nac Nac Car Car Car Car Car Car Cs2 .=O Cs3 Cs3

>  <indices>  (438) 
[0, 1, 2]

>  <tasks>  (438) 
probe_placing close_aromatic_ring close_aromatic_ring close_aromatic_ring ring_built build_to_Nac close_aromatic_ring close_aromatic_ring close_aromatic_ring close_aromatic_ring close_aromatic_ring build_to_Nd0 build_DB_to_Cs2 build_SB_to_Cs2

>  <prot_clashes>  (438) 
8

>  <NBS phar>  (438) 
0.34

>  <NBS_non-phar>  (438) 
0.5570874810218811

>  <NBS>  (438) 
0.8970874810218812

>  <source_stage>  (438) 
scored

>  <source_iter>  (438) 
13

>  <source_parent_mol>  (438) 
1

>  <source_scenario>  (438) 
1 2 3 1 4 7 5 0 0 0 1 0 1

>  <source_rank_in_scored_call>  (438) 
24

>  <source_current_task>  (438) 
no_task

>  <scenario>  (438) 
1 2 3 1 4 7 5 0 0 0 1 0

>  <protected_ring_attachments>  (438) 
1,0,5,6|0,5,6;3,1,0,2|1,0,2;3,4,5,6|4,5,6;4,5,0,2|5,0,2

>  <current_task>  (438) 
no_task

>  <rotatable_bond_torsions>  (438) 
1,0,2,12;0,2,12,14;0,5,6,7

$$$$

     RDKit          3D

 16 17  0  0  0  0  0  0  0  0999 V2000
  -27.8330   -8.0030  -31.4020 C   0  0  0  0  0  0  0  0  0  0  0  0
  -28.0650   -7.2000  -32.4790 N   0  0  0  0  0  0  0  0  0  0  0  0
  -27.4380   -9.4390  -31.5920 N   0  0  0  0  0  0  0  0  0  0  0  0
  -28.3630   -5.9690  -32.0370 C   0  0  0  0  0  0  0  0  0  0  0  0
  -28.3140   -6.0240  -30.6770 N   0  0  0  0  0  0  0  0  0  0  0  0
  -27.9940   -7.2470  -30.2990 N   0  0  0  0  0  0  0  0  0  0  0  0
  -27.7840   -7.7100  -28.9680 C   0  0  0  0  0  0  0  0  0  0  0  0
  -26.6410   -8.3680  -28.5510 C   0  0  0  0  0  0  0  0  0  0  0  0
  -26.5630   -8.8830  -27.2980 C   0  0  0  0  0  0  0  0  0  0  0  0
  -27.5750   -8.7850  -26.3960 C   0  0  0  0  0  0  0  0  0  0  0  0
  -28.8300   -7.6050  -28.0470 C   0  0  0  0  0  0  0  0  0  0  0  0
  -28.7290   -8.1350  -26.7770 C   0  0  0  0  0  0  0  0  0  0  0  0
  -28.4030  -10.3270  -31.7240 C   0  0  0  0  0  0  0  0  0  0  0  0
  -29.6230  -10.2290  -31.8630 O   0  0  0  0  0  0  0  0  0  0  0  0
  -27.9660  -11.8240  -31.7390 C   0  0  0  0  0  0  0  0  0  0  0  0
  -28.8130  -12.6270  -32.6020 C   0  0  0  0  0  0  0  0  0  0  0  0
  1  2  2  0
  1  3  1  0
  1  6  1  0
  2  4  1  0
  3 13  1  0
  4  5  2  0
  5  6  1  0
  6  7  1  0
 13 14  2  0
 13 15  1  0
  7  8  2  0
  7 11  1  0
  8  9  1  0
  9 10  2  0
 10 12  1  0
 11 12  2  0
 15 16  1  0
M  END
>  <name>  (439) 
Car Nac Nd0 Car Nac Nac Car Car Car Car Car Car Cs2 .=O Cs3 Cs3

>  <indices>  (439) 
[0, 1, 2]

>  <tasks>  (439) 
probe_placing close_aromatic_ring close_aromatic_ring close_aromatic_ring ring_built build_to_Nac close_aromatic_ring close_aromatic_ring close_aromatic_ring close_aromatic_ring close_aromatic_ring build_to_Nd0 build_DB_to_Cs2 build_SB_to_Cs2

>  <prot_clashes>  (439) 
10

>  <NBS phar>  (439) 
0.34

>  <NBS_non-phar>  (439) 
0.5527687668800354

>  <NBS>  (439) 
0.8927687668800355

>  <source_stage>  (439) 
scored

>  <source_iter>  (439) 
13

>  <source_parent_mol>  (439) 
1

>  <source_scenario>  (439) 
1 2 3 1 4 7 5 0 0 0 1 0 1

>  <source_rank_in_scored_call>  (439) 
27

>  <source_current_task>  (439) 
no_task

>  <scenario>  (439) 
1 2 3 1 4 7 5 0 0 0 1 0

>  <protected_ring_attachments>  (439) 
1,0,5,6|0,5,6;3,1,0,2|1,0,2;3,4,5,6|4,5,6;4,5,0,2|5,0,2

>  <current_task>  (439) 
no_task

>  <rotatable_bond_torsions>  (439) 
1,0,2,12;0,2,12,14;0,5,6,7

$$$$

     RDKit          3D

 16 17  0  0  0  0  0  0  0  0999 V2000
  -27.8670   -7.9860  -31.4050 C   0  0  0  0  0  0  0  0  0  0  0  0
  -28.0470   -7.1530  -32.4700 N   0  0  0  0  0  0  0  0  0  0  0  0
  -27.5540   -9.4390  -31.6160 N   0  0  0  0  0  0  0  0  0  0  0  0
  -28.2780   -5.9140  -32.0100 C   0  0  0  0  0  0  0  0  0  0  0  0
  -28.2400   -5.9940  -30.6510 N   0  0  0  0  0  0  0  0  0  0  0  0
  -27.9920   -7.2390  -30.2910 N   0  0  0  0  0  0  0  0  0  0  0  0
  -27.8160   -7.7330  -28.9660 C   0  0  0  0  0  0  0  0  0  0  0  0
  -26.7150   -8.4620  -28.5540 C   0  0  0  0  0  0  0  0  0  0  0  0
  -26.6740   -9.0000  -27.3090 C   0  0  0  0  0  0  0  0  0  0  0  0
  -27.6840   -8.8580  -26.4110 C   0  0  0  0  0  0  0  0  0  0  0  0
  -28.8600   -7.5840  -28.0490 C   0  0  0  0  0  0  0  0  0  0  0  0
  -28.7970   -8.1380  -26.7870 C   0  0  0  0  0  0  0  0  0  0  0  0
  -28.5660  -10.2680  -31.7670 C   0  0  0  0  0  0  0  0  0  0  0  0
  -29.7780  -10.0990  -31.9110 O   0  0  0  0  0  0  0  0  0  0  0  0
  -28.2140  -11.7870  -31.8030 C   0  0  0  0  0  0  0  0  0  0  0  0
  -28.0640  -12.4540  -30.4020 C   0  0  0  0  0  0  0  0  0  0  0  0
  1  2  2  0
  1  3  1  0
  1  6  1  0
  2  4  1  0
  3 13  1  0
  4  5  2  0
  5  6  1  0
  6  7  1  0
 13 14  2  0
 13 15  1  0
  7  8  2  0
  7 11  1  0
  8  9  1  0
  9 10  2  0
 10 12  1  0
 11 12  2  0
 15 16  1  0
M  END
>  <name>  (440) 
Car Nac Nd0 Car Nac Nac Car Car Car Car Car Car Cs2 .=O Cs3 Cs3

>  <indices>  (440) 
[0, 1, 2]

>  <tasks>  (440) 
probe_placing close_aromatic_ring close_aromatic_ring close_aromatic_ring ring_built build_to_Nac close_aromatic_ring close_aromatic_ring close_aromatic_ring close_aromatic_ring close_aromatic_ring build_to_Nd0 build_DB_to_Cs2 build_SB_to_Cs2

>  <prot_clashes>  (440) 
7

>  <NBS phar>  (440) 
0.32

>  <NBS_non-phar>  (440) 
0.5689727067947388

>  <NBS>  (440) 
0.8889727067947388

>  <source_stage>  (440) 
scored

>  <source_iter>  (440) 
13

>  <source_parent_mol>  (440) 
1

>  <source_scenario>  (440) 
1 2 3 1 4 7 5 0 0 0 1 0 1

>  <source_rank_in_scored_call>  (440) 
30

>  <source_current_task>  (440) 
no_task

>  <scenario>  (440) 
1 2 3 1 4 7 5 0 0 0 1 0

>  <protected_ring_attachments>  (440) 
1,0,5,6|0,5,6;3,1,0,2|1,0,2;3,4,5,6|4,5,6;4,5,0,2|5,0,2

>  <current_task>  (440) 
no_task

>  <rotatable_bond_torsions>  (440) 
1,0,2,12;0,2,12,14;0,5,6,7

$$$$

     RDKit          3D

 16 17  0  0  0  0  0  0  0  0999 V2000
  -28.0070   -8.1150  -31.4370 C   0  0  0  0  0  0  0  0  0  0  0  0
  -28.0630   -7.2750  -32.5110 N   0  0  0  0  0  0  0  0  0  0  0  0
  -27.9640   -9.6030  -31.6340 N   0  0  0  0  0  0  0  0  0  0  0  0
  -28.0560   -6.0100  -32.0640 C   0  0  0  0  0  0  0  0  0  0  0  0
  -27.9970   -6.0810  -30.7060 N   0  0  0  0  0  0  0  0  0  0  0  0
  -27.9670   -7.3460  -30.3320 N   0  0  0  0  0  0  0  0  0  0  0  0
  -27.8480   -7.8500  -29.0050 C   0  0  0  0  0  0  0  0  0  0  0  0
  -26.8850   -8.7590  -28.6080 C   0  0  0  0  0  0  0  0  0  0  0  0
  -26.9080   -9.2830  -27.3560 C   0  0  0  0  0  0  0  0  0  0  0  0
  -27.8520   -8.9530  -26.4360 C   0  0  0  0  0  0  0  0  0  0  0  0
  -28.8240   -7.5060  -28.0660 C   0  0  0  0  0  0  0  0  0  0  0  0
  -28.8280   -8.0490  -26.7970 C   0  0  0  0  0  0  0  0  0  0  0  0
  -29.1120  -10.2380  -31.7480 C   0  0  0  0  0  0  0  0  0  0  0  0
  -30.2770   -9.8570  -31.8660 O   0  0  0  0  0  0  0  0  0  0  0  0
  -29.0390  -11.7960  -31.7690 C   0  0  0  0  0  0  0  0  0  0  0  0
  -27.6880  -12.2420  -32.1440 C   0  0  0  0  0  0  0  0  0  0  0  0
  1  2  2  0
  1  3  1  0
  1  6  1  0
  2  4  1  0
  3 13  1  0
  4  5  2  0
  5  6  1  0
  6  7  1  0
 13 14  2  0
 13 15  1  0
  7  8  2  0
  7 11  1  0
  8  9  1  0
  9 10  2  0
 10 12  1  0
 11 12  2  0
 15 16  1  0
M  END
>  <name>  (441) 
Car Nac Nd0 Car Nac Nac Car Car Car Car Car Car Cs2 .=O Cs3 Cs3

>  <indices>  (441) 
[0, 1, 2]

>  <tasks>  (441) 
probe_placing close_aromatic_ring close_aromatic_ring close_aromatic_ring ring_built build_to_Nac close_aromatic_ring close_aromatic_ring close_aromatic_ring close_aromatic_ring close_aromatic_ring build_to_Nd0 build_DB_to_Cs2 build_SB_to_Cs2

>  <prot_clashes>  (441) 
7

>  <NBS phar>  (441) 
0.34

>  <NBS_non-phar>  (441) 
0.5479884147644043

>  <NBS>  (441) 
0.8879884147644044

>  <source_stage>  (441) 
scored

>  <source_iter>  (441) 
13

>  <source_parent_mol>  (441) 
1

>  <source_scenario>  (441) 
1 2 3 1 4 7 5 0 0 0 1 0 1

>  <source_rank_in_scored_call>  (441) 
31

>  <source_current_task>  (441) 
no_task

>  <scenario>  (441) 
1 2 3 1 4 7 5 0 0 0 1 0

>  <protected_ring_attachments>  (441) 
1,0,5,6|0,5,6;3,1,0,2|1,0,2;3,4,5,6|4,5,6;4,5,0,2|5,0,2

>  <current_task>  (441) 
no_task

>  <rotatable_bond_torsions>  (441) 
1,0,2,12;0,2,12,14;0,5,6,7

$$$$

     RDKit          3D

 16 17  0  0  0  0  0  0  0  0999 V2000
  -28.0200   -8.0990  -31.4420 C   0  0  0  0  0  0  0  0  0  0  0  0
  -28.0720   -7.2640  -32.5190 N   0  0  0  0  0  0  0  0  0  0  0  0
  -27.9930   -9.5880  -31.6310 N   0  0  0  0  0  0  0  0  0  0  0  0
  -28.0500   -5.9970  -32.0790 C   0  0  0  0  0  0  0  0  0  0  0  0
  -27.9860   -6.0610  -30.7200 N   0  0  0  0  0  0  0  0  0  0  0  0
  -27.9670   -7.3250  -30.3410 N   0  0  0  0  0  0  0  0  0  0  0  0
  -27.8470   -7.8230  -29.0120 C   0  0  0  0  0  0  0  0  0  0  0  0
  -26.8920   -8.7410  -28.6140 C   0  0  0  0  0  0  0  0  0  0  0  0
  -26.9150   -9.2570  -27.3600 C   0  0  0  0  0  0  0  0  0  0  0  0
  -27.8510   -8.9130  -26.4370 C   0  0  0  0  0  0  0  0  0  0  0  0
  -28.8160   -7.4640  -28.0700 C   0  0  0  0  0  0  0  0  0  0  0  0
  -28.8200   -8.0010  -26.7980 C   0  0  0  0  0  0  0  0  0  0  0  0
  -29.1480  -10.2120  -31.7370 C   0  0  0  0  0  0  0  0  0  0  0  0
  -30.3100   -9.8200  -31.8510 O   0  0  0  0  0  0  0  0  0  0  0  0
  -29.0910  -11.7710  -31.7500 C   0  0  0  0  0  0  0  0  0  0  0  0
  -27.6890  -12.1790  -32.1290 C   0  0  0  0  0  0  0  0  0  0  0  0
  1  2  2  0
  1  3  1  0
  1  6  1  0
  2  4  1  0
  3 13  1  0
  4  5  2  0
  5  6  1  0
  6  7  1  0
 13 14  2  0
 13 15  1  0
  7  8  2  0
  7 11  1  0
  8  9  1  0
  9 10  2  0
 10 12  1  0
 11 12  2  0
 15 16  1  0
M  END
>  <name>  (442) 
Car Nac Nd0 Car Nac Nac Car Car Car Car Car Car Cs2 .=O Cs3 Cs3

>  <indices>  (442) 
[0, 1, 2]

>  <tasks>  (442) 
probe_placing close_aromatic_ring close_aromatic_ring close_aromatic_ring ring_built build_to_Nac close_aromatic_ring close_aromatic_ring close_aromatic_ring close_aromatic_ring close_aromatic_ring build_to_Nd0 build_DB_to_Cs2 build_SB_to_Cs2

>  <prot_clashes>  (442) 
7

>  <NBS phar>  (442) 
0.34

>  <NBS_non-phar>  (442) 
0.5466984510421753

>  <NBS>  (442) 
0.8866984510421754

>  <source_stage>  (442) 
scored

>  <source_iter>  (442) 
13

>  <source_parent_mol>  (442) 
1

>  <source_scenario>  (442) 
1 2 3 1 4 7 5 0 0 0 1 0 1

>  <source_rank_in_scored_call>  (442) 
32

>  <source_current_task>  (442) 
no_task

>  <scenario>  (442) 
1 2 3 1 4 7 5 0 0 0 1 0

>  <protected_ring_attachments>  (442) 
1,0,5,6|0,5,6;3,1,0,2|1,0,2;3,4,5,6|4,5,6;4,5,0,2|5,0,2

>  <current_task>  (442) 
no_task

>  <rotatable_bond_torsions>  (442) 
1,0,2,12;0,2,12,14;0,5,6,7

$$$$

     RDKit          3D

 16 17  0  0  0  0  0  0  0  0999 V2000
  -28.0100   -8.0960  -31.4470 C   0  0  0  0  0  0  0  0  0  0  0  0
  -28.0530   -7.2460  -32.5130 N   0  0  0  0  0  0  0  0  0  0  0  0
  -27.9960   -9.5820  -31.6560 N   0  0  0  0  0  0  0  0  0  0  0  0
  -28.0210   -5.9850  -32.0560 C   0  0  0  0  0  0  0  0  0  0  0  0
  -27.9600   -6.0680  -30.6990 N   0  0  0  0  0  0  0  0  0  0  0  0
  -27.9530   -7.3370  -30.3360 N   0  0  0  0  0  0  0  0  0  0  0  0
  -27.8410   -7.8530  -29.0130 C   0  0  0  0  0  0  0  0  0  0  0  0
  -26.8940   -8.7840  -28.6260 C   0  0  0  0  0  0  0  0  0  0  0  0
  -26.9240   -9.3170  -27.3780 C   0  0  0  0  0  0  0  0  0  0  0  0
  -27.8600   -8.9770  -26.4530 C   0  0  0  0  0  0  0  0  0  0  0  0
  -28.8080   -7.4990  -28.0690 C   0  0  0  0  0  0  0  0  0  0  0  0
  -28.8200   -8.0520  -26.8040 C   0  0  0  0  0  0  0  0  0  0  0  0
  -29.1560  -10.1950  -31.7720 C   0  0  0  0  0  0  0  0  0  0  0  0
  -30.3140   -9.7910  -31.8840 O   0  0  0  0  0  0  0  0  0  0  0  0
  -29.1120  -11.7540  -31.8060 C   0  0  0  0  0  0  0  0  0  0  0  0
  -27.6860  -12.2400  -31.6920 C   0  0  0  0  0  0  0  0  0  0  0  0
  1  2  2  0
  1  3  1  0
  1  6  1  0
  2  4  1  0
  3 13  1  0
  4  5  2  0
  5  6  1  0
  6  7  1  0
 13 14  2  0
 13 15  1  0
  7  8  2  0
  7 11  1  0
  8  9  1  0
  9 10  2  0
 10 12  1  0
 11 12  2  0
 15 16  1  0
M  END
>  <name>  (443) 
Car Nac Nd0 Car Nac Nac Car Car Car Car Car Car Cs2 .=O Cs3 Cs3

>  <indices>  (443) 
[0, 1, 2]

>  <tasks>  (443) 
probe_placing close_aromatic_ring close_aromatic_ring close_aromatic_ring ring_built build_to_Nac close_aromatic_ring close_aromatic_ring close_aromatic_ring close_aromatic_ring close_aromatic_ring build_to_Nd0 build_DB_to_Cs2 build_SB_to_Cs2

>  <prot_clashes>  (443) 
7

>  <NBS phar>  (443) 
0.34

>  <NBS_non-phar>  (443) 
0.5460248589515686

>  <NBS>  (443) 
0.8860248589515687

>  <source_stage>  (443) 
scored

>  <source_iter>  (443) 
13

>  <source_parent_mol>  (443) 
1

>  <source_scenario>  (443) 
1 2 3 1 4 7 5 0 0 0 1 0 1

>  <source_rank_in_scored_call>  (443) 
33

>  <source_current_task>  (443) 
no_task

>  <scenario>  (443) 
1 2 3 1 4 7 5 0 0 0 1 0

>  <protected_ring_attachments>  (443) 
1,0,5,6|0,5,6;3,1,0,2|1,0,2;3,4,5,6|4,5,6;4,5,0,2|5,0,2

>  <current_task>  (443) 
no_task

>  <rotatable_bond_torsions>  (443) 
1,0,2,12;0,2,12,14;0,5,6,7

$$$$

     RDKit          3D

 16 17  0  0  0  0  0  0  0  0999 V2000
  -27.9190   -8.0570  -31.4420 C   0  0  0  0  0  0  0  0  0  0  0  0
  -28.0640   -7.2260  -32.5140 N   0  0  0  0  0  0  0  0  0  0  0  0
  -27.7000   -9.5290  -31.6430 N   0  0  0  0  0  0  0  0  0  0  0  0
  -28.2090   -5.9700  -32.0640 C   0  0  0  0  0  0  0  0  0  0  0  0
  -28.1540   -6.0390  -30.7050 N   0  0  0  0  0  0  0  0  0  0  0  0
  -27.9790   -7.2940  -30.3350 N   0  0  0  0  0  0  0  0  0  0  0  0
  -27.8140   -7.7850  -29.0080 C   0  0  0  0  0  0  0  0  0  0  0  0
  -26.7540   -8.5770  -28.6050 C   0  0  0  0  0  0  0  0  0  0  0  0
  -26.7260   -9.1040  -27.3550 C   0  0  0  0  0  0  0  0  0  0  0  0
  -27.7110   -8.8910  -26.4430 C   0  0  0  0  0  0  0  0  0  0  0  0
  -28.8310   -7.5610  -28.0770 C   0  0  0  0  0  0  0  0  0  0  0  0
  -28.7830   -8.1060  -26.8100 C   0  0  0  0  0  0  0  0  0  0  0  0
  -28.7650  -10.2940  -31.7700 C   0  0  0  0  0  0  0  0  0  0  0  0
  -29.9660  -10.0510  -31.8970 O   0  0  0  0  0  0  0  0  0  0  0  0
  -28.5090  -11.8330  -31.7940 C   0  0  0  0  0  0  0  0  0  0  0  0
  -27.7960  -12.2510  -30.4860 C   0  0  0  0  0  0  0  0  0  0  0  0
  1  2  2  0
  1  3  1  0
  1  6  1  0
  2  4  1  0
  3 13  1  0
  4  5  2  0
  5  6  1  0
  6  7  1  0
 13 14  2  0
 13 15  1  0
  7  8  2  0
  7 11  1  0
  8  9  1  0
  9 10  2  0
 10 12  1  0
 11 12  2  0
 15 16  1  0
M  END
>  <name>  (444) 
Car Nac Nd0 Car Nac Nac Car Car Car Car Car Car Cs2 .=O Cs3 Cs3

>  <indices>  (444) 
[0, 1, 2]

>  <tasks>  (444) 
probe_placing close_aromatic_ring close_aromatic_ring close_aromatic_ring ring_built build_to_Nac close_aromatic_ring close_aromatic_ring close_aromatic_ring close_aromatic_ring close_aromatic_ring build_to_Nd0 build_DB_to_Cs2 build_SB_to_Cs2

>  <prot_clashes>  (444) 
9

>  <NBS phar>  (444) 
0.32

>  <NBS_non-phar>  (444) 
0.541587769985199

>  <NBS>  (444) 
0.861587769985199

>  <source_stage>  (444) 
scored

>  <source_iter>  (444) 
13

>  <source_parent_mol>  (444) 
1

>  <source_scenario>  (444) 
1 2 3 1 4 7 5 0 0 0 1 0 1

>  <source_rank_in_scored_call>  (444) 
53

>  <source_current_task>  (444) 
no_task

>  <scenario>  (444) 
1 2 3 1 4 7 5 0 0 0 1 0

>  <protected_ring_attachments>  (444) 
1,0,5,6|0,5,6;3,1,0,2|1,0,2;3,4,5,6|4,5,6;4,5,0,2|5,0,2

>  <current_task>  (444) 
no_task

>  <rotatable_bond_torsions>  (444) 
1,0,2,12;0,2,12,14;0,5,6,7

$$$$

     RDKit          3D

 16 17  0  0  0  0  0  0  0  0999 V2000
  -27.9650   -8.1420  -31.4190 C   0  0  0  0  0  0  0  0  0  0  0  0
  -28.1260   -7.3380  -32.5090 N   0  0  0  0  0  0  0  0  0  0  0  0
  -27.7480   -9.6180  -31.5850 N   0  0  0  0  0  0  0  0  0  0  0  0
  -28.2660   -6.0720  -32.0890 C   0  0  0  0  0  0  0  0  0  0  0  0
  -28.1920   -6.1050  -30.7300 N   0  0  0  0  0  0  0  0  0  0  0  0
  -28.0110   -7.3500  -30.3310 N   0  0  0  0  0  0  0  0  0  0  0  0
  -27.8270   -7.8070  -28.9940 C   0  0  0  0  0  0  0  0  0  0  0  0
  -26.7610   -8.5880  -28.5850 C   0  0  0  0  0  0  0  0  0  0  0  0
  -26.7150   -9.0830  -27.3230 C   0  0  0  0  0  0  0  0  0  0  0  0
  -27.6870   -8.8470  -26.4030 C   0  0  0  0  0  0  0  0  0  0  0  0
  -28.8320   -7.5610  -28.0550 C   0  0  0  0  0  0  0  0  0  0  0  0
  -28.7650   -8.0730  -26.7750 C   0  0  0  0  0  0  0  0  0  0  0  0
  -28.8140  -10.3870  -31.6770 C   0  0  0  0  0  0  0  0  0  0  0  0
  -30.0160  -10.1480  -31.7930 O   0  0  0  0  0  0  0  0  0  0  0  0
  -28.5560  -11.9260  -31.6660 C   0  0  0  0  0  0  0  0  0  0  0  0
  -28.4370  -12.4260  -33.1040 C   0  0  0  0  0  0  0  0  0  0  0  0
  1  2  2  0
  1  3  1  0
  1  6  1  0
  2  4  1  0
  3 13  1  0
  4  5  2  0
  5  6  1  0
  6  7  1  0
 13 14  2  0
 13 15  1  0
  7  8  2  0
  7 11  1  0
  8  9  1  0
  9 10  2  0
 10 12  1  0
 11 12  2  0
 15 16  1  0
M  END
>  <name>  (445) 
Car Nac Nd0 Car Nac Nac Car Car Car Car Car Car Cs2 .=O Cs3 Cs3

>  <indices>  (445) 
[0, 1, 2]

>  <tasks>  (445) 
probe_placing close_aromatic_ring close_aromatic_ring close_aromatic_ring ring_built build_to_Nac close_aromatic_ring close_aromatic_ring close_aromatic_ring close_aromatic_ring close_aromatic_ring build_to_Nd0 build_DB_to_Cs2 build_SB_to_Cs2

>  <prot_clashes>  (445) 
7

>  <NBS phar>  (445) 
0.32

>  <NBS_non-phar>  (445) 
0.5337318181991577

>  <NBS>  (445) 
0.8537318181991578

>  <source_stage>  (445) 
scored

>  <source_iter>  (445) 
13

>  <source_parent_mol>  (445) 
1

>  <source_scenario>  (445) 
1 2 3 1 4 7 5 0 0 0 1 0 1

>  <source_rank_in_scored_call>  (445) 
61

>  <source_current_task>  (445) 
no_task

>  <scenario>  (445) 
1 2 3 1 4 7 5 0 0 0 1 0

>  <protected_ring_attachments>  (445) 
1,0,5,6|0,5,6;3,1,0,2|1,0,2;3,4,5,6|4,5,6;4,5,0,2|5,0,2

>  <current_task>  (445) 
no_task

>  <rotatable_bond_torsions>  (445) 
1,0,2,12;0,2,12,14;0,5,6,7

$$$$

     RDKit          3D

 16 17  0  0  0  0  0  0  0  0999 V2000
  -27.9160   -8.0310  -31.4420 C   0  0  0  0  0  0  0  0  0  0  0  0
  -28.0670   -7.1950  -32.5090 N   0  0  0  0  0  0  0  0  0  0  0  0
  -27.6920   -9.5010  -31.6500 N   0  0  0  0  0  0  0  0  0  0  0  0
  -28.2160   -5.9430  -32.0530 C   0  0  0  0  0  0  0  0  0  0  0  0
  -28.1580   -6.0170  -30.6950 N   0  0  0  0  0  0  0  0  0  0  0  0
  -27.9770   -7.2720  -30.3310 N   0  0  0  0  0  0  0  0  0  0  0  0
  -27.8070   -7.7690  -29.0070 C   0  0  0  0  0  0  0  0  0  0  0  0
  -26.7430   -8.5580  -28.6090 C   0  0  0  0  0  0  0  0  0  0  0  0
  -26.7110   -9.0910  -27.3620 C   0  0  0  0  0  0  0  0  0  0  0  0
  -27.6950   -8.8860  -26.4470 C   0  0  0  0  0  0  0  0  0  0  0  0
  -28.8240   -7.5540  -28.0730 C   0  0  0  0  0  0  0  0  0  0  0  0
  -28.7710   -8.1040  -26.8080 C   0  0  0  0  0  0  0  0  0  0  0  0
  -28.7540  -10.2700  -31.7770 C   0  0  0  0  0  0  0  0  0  0  0  0
  -29.9550  -10.0320  -31.9010 O   0  0  0  0  0  0  0  0  0  0  0  0
  -28.4910  -11.8070  -31.8100 C   0  0  0  0  0  0  0  0  0  0  0  0
  -27.8560  -12.3160  -30.4700 C   0  0  0  0  0  0  0  0  0  0  0  0
  1  2  2  0
  1  3  1  0
  1  6  1  0
  2  4  1  0
  3 13  1  0
  4  5  2  0
  5  6  1  0
  6  7  1  0
 13 14  2  0
 13 15  1  0
  7  8  2  0
  7 11  1  0
  8  9  1  0
  9 10  2  0
 10 12  1  0
 11 12  2  0
 15 16  1  0
M  END
>  <name>  (446) 
Car Nac Nd0 Car Nac Nac Car Car Car Car Car Car Cs2 .=O Cs3 Cs3

>  <indices>  (446) 
[0, 1, 2]

>  <tasks>  (446) 
probe_placing close_aromatic_ring close_aromatic_ring close_aromatic_ring ring_built build_to_Nac close_aromatic_ring close_aromatic_ring close_aromatic_ring close_aromatic_ring close_aromatic_ring build_to_Nd0 build_DB_to_Cs2 build_SB_to_Cs2

>  <prot_clashes>  (446) 
8

>  <NBS phar>  (446) 
0.3

>  <NBS_non-phar>  (446) 
0.5428550839424133

>  <NBS>  (446) 
0.8428550839424134

>  <source_stage>  (446) 
scored

>  <source_iter>  (446) 
13

>  <source_parent_mol>  (446) 
1

>  <source_scenario>  (446) 
1 2 3 1 4 7 5 0 0 0 1 0 1

>  <source_rank_in_scored_call>  (446) 
69

>  <source_current_task>  (446) 
no_task

>  <scenario>  (446) 
1 2 3 1 4 7 5 0 0 0 1 0

>  <protected_ring_attachments>  (446) 
1,0,5,6|0,5,6;3,1,0,2|1,0,2;3,4,5,6|4,5,6;4,5,0,2|5,0,2

>  <current_task>  (446) 
no_task

>  <rotatable_bond_torsions>  (446) 
1,0,2,12;0,2,12,14;0,5,6,7

$$$$

     RDKit          3D

 16 17  0  0  0  0  0  0  0  0999 V2000
  -27.7720   -8.3140  -31.1530 C   0  0  0  0  0  0  0  0  0  0  0  0
  -27.8240   -7.4530  -32.2100 N   0  0  0  0  0  0  0  0  0  0  0  0
  -27.5410   -9.7810  -31.3740 N   0  0  0  0  0  0  0  0  0  0  0  0
  -28.0040   -6.2100  -31.7390 C   0  0  0  0  0  0  0  0  0  0  0  0
  -28.0640   -6.3150  -30.3830 N   0  0  0  0  0  0  0  0  0  0  0  0
  -27.9240   -7.5800  -30.0340 N   0  0  0  0  0  0  0  0  0  0  0  0
  -27.8730   -8.1080  -28.7120 C   0  0  0  0  0  0  0  0  0  0  0  0
  -26.8530   -8.9160  -28.2430 C   0  0  0  0  0  0  0  0  0  0  0  0
  -26.9320   -9.4770  -27.0100 C   0  0  0  0  0  0  0  0  0  0  0  0
  -27.9900   -9.2840  -26.1780 C   0  0  0  0  0  0  0  0  0  0  0  0
  -28.9650   -7.9050  -27.8640 C   0  0  0  0  0  0  0  0  0  0  0  0
  -29.0260   -8.4840  -26.6130 C   0  0  0  0  0  0  0  0  0  0  0  0
  -28.5930  -10.5370  -31.6110 C   0  0  0  0  0  0  0  0  0  0  0  0
  -29.7780  -10.2850  -31.8330 O   0  0  0  0  0  0  0  0  0  0  0  0
  -28.3400  -12.0760  -31.6570 C   0  0  0  0  0  0  0  0  0  0  0  0
  -28.1170   -4.9440  -32.5520 C   0  0  0  0  0  0  0  0  0  0  0  0
  1  2  2  0
  1  3  1  0
  1  6  1  0
  2  4  1  0
  3 13  1  0
  4 16  1  0
  4  5  2  0
  5  6  1  0
  6  7  1  0
 13 14  2  0
 13 15  1  0
  7  8  2  0
  7 11  1  0
  8  9  1  0
  9 10  2  0
 10 12  1  0
 11 12  2  0
M  END
>  <name>  (447) 
Car Nac Nd0 Car Nac Nac Car Car Car Car Car Car Cs2 .=O Cs3 Cs3

>  <indices>  (447) 
[0, 1, 2]

>  <tasks>  (447) 
probe_placing close_aromatic_ring close_aromatic_ring close_aromatic_ring ring_built build_to_Nac close_aromatic_ring close_aromatic_ring close_aromatic_ring close_aromatic_ring close_aromatic_ring build_to_Nd0 build_DB_to_Cs2 build_SB_to_Cs2

>  <prot_clashes>  (447) 
10

>  <NBS phar>  (447) 
0.34

>  <NBS_non-phar>  (447) 
0.49542760848999023

>  <NBS>  (447) 
0.8354276084899903

>  <source_stage>  (447) 
scored

>  <source_iter>  (447) 
13

>  <source_parent_mol>  (447) 
1

>  <source_scenario>  (447) 
1 2 3 1 4 7 5 0 0 0 1 0 1

>  <source_rank_in_scored_call>  (447) 
72

>  <source_current_task>  (447) 
no_task

>  <scenario>  (447) 
1 2 3 1 4 7 5 0 0 0 1 0

>  <protected_ring_attachments>  (447) 
1,0,5,6|0,5,6;3,1,0,2|1,0,2;3,4,5,6|4,5,6;4,5,0,2|5,0,2

>  <current_task>  (447) 
no_task

>  <rotatable_bond_torsions>  (447) 
1,0,2,12;0,2,12,14;0,5,6,7

$$$$

     RDKit          3D

 16 17  0  0  0  0  0  0  0  0999 V2000
  -27.7360   -7.9350  -31.5080 C   0  0  0  0  0  0  0  0  0  0  0  0
  -27.8100   -7.1140  -32.5940 N   0  0  0  0  0  0  0  0  0  0  0  0
  -27.7030   -9.4260  -31.6790 N   0  0  0  0  0  0  0  0  0  0  0  0
  -27.7900   -5.8420  -32.1700 C   0  0  0  0  0  0  0  0  0  0  0  0
  -27.7050   -5.8880  -30.8120 N   0  0  0  0  0  0  0  0  0  0  0  0
  -27.6720   -7.1480  -30.4170 N   0  0  0  0  0  0  0  0  0  0  0  0
  -27.5300   -7.6280  -29.0840 C   0  0  0  0  0  0  0  0  0  0  0  0
  -26.5630   -8.5350  -28.6900 C   0  0  0  0  0  0  0  0  0  0  0  0
  -26.5640   -9.0360  -27.4290 C   0  0  0  0  0  0  0  0  0  0  0  0
  -27.4890   -8.6870  -26.4970 C   0  0  0  0  0  0  0  0  0  0  0  0
  -28.4860   -7.2640  -28.1320 C   0  0  0  0  0  0  0  0  0  0  0  0
  -28.4680   -7.7850  -26.8550 C   0  0  0  0  0  0  0  0  0  0  0  0
  -28.8560  -10.0590  -31.7600 C   0  0  0  0  0  0  0  0  0  0  0  0
  -30.0220   -9.6750  -31.8620 O   0  0  0  0  0  0  0  0  0  0  0  0
  -28.7890  -11.6170  -31.7550 C   0  0  0  0  0  0  0  0  0  0  0  0
  -29.5630   -6.2780  -28.5100 C   0  0  0  0  0  0  0  0  0  0  0  0
  1  2  2  0
  1  3  1  0
  1  6  1  0
  2  4  1  0
  3 13  1  0
  4  5  2  0
  5  6  1  0
  6  7  1  0
 13 14  2  0
 13 15  1  0
  7  8  2  0
  7 11  1  0
  8  9  1  0
  9 10  2  0
 10 12  1  0
 11 16  1  0
 11 12  2  0
M  END
>  <name>  (448) 
Car Nac Nd0 Car Nac Nac Car Car Car Car Car Car Cs2 .=O Cs3 Cs3

>  <indices>  (448) 
[0, 1, 2]

>  <tasks>  (448) 
probe_placing close_aromatic_ring close_aromatic_ring close_aromatic_ring ring_built build_to_Nac close_aromatic_ring close_aromatic_ring close_aromatic_ring close_aromatic_ring close_aromatic_ring build_to_Nd0 build_DB_to_Cs2 build_SB_to_Cs2

>  <prot_clashes>  (448) 
12

>  <NBS phar>  (448) 
0.34

>  <NBS_non-phar>  (448) 
0.4743426442146301

>  <NBS>  (448) 
0.8143426442146302

>  <source_stage>  (448) 
scored

>  <source_iter>  (448) 
13

>  <source_parent_mol>  (448) 
1

>  <source_scenario>  (448) 
1 2 3 1 4 7 5 0 0 0 1 0 1

>  <source_rank_in_scored_call>  (448) 
91

>  <source_current_task>  (448) 
no_task

>  <scenario>  (448) 
1 2 3 1 4 7 5 0 0 0 1 0

>  <protected_ring_attachments>  (448) 
1,0,5,6|0,5,6;3,1,0,2|1,0,2;3,4,5,6|4,5,6;4,5,0,2|5,0,2

>  <current_task>  (448) 
no_task

>  <rotatable_bond_torsions>  (448) 
1,0,2,12;0,2,12,14;0,5,6,7

$$$$

     RDKit          3D

 16 17  0  0  0  0  0  0  0  0999 V2000
  -27.8650   -8.0420  -31.4930 C   0  0  0  0  0  0  0  0  0  0  0  0
  -27.6900   -7.1740  -32.5300 N   0  0  0  0  0  0  0  0  0  0  0  0
  -27.9850   -9.5180  -31.7450 N   0  0  0  0  0  0  0  0  0  0  0  0
  -27.5780   -5.9330  -32.0340 C   0  0  0  0  0  0  0  0  0  0  0  0
  -27.6890   -6.0460  -30.6810 N   0  0  0  0  0  0  0  0  0  0  0  0
  -27.8600   -7.3150  -30.3600 N   0  0  0  0  0  0  0  0  0  0  0  0
  -27.9620   -7.8650  -29.0500 C   0  0  0  0  0  0  0  0  0  0  0  0
  -27.1740   -8.9010  -28.5840 C   0  0  0  0  0  0  0  0  0  0  0  0
  -27.4090   -9.4500  -27.3660 C   0  0  0  0  0  0  0  0  0  0  0  0
  -28.4060   -9.0260  -26.5460 C   0  0  0  0  0  0  0  0  0  0  0  0
  -28.9920   -7.4230  -28.2140 C   0  0  0  0  0  0  0  0  0  0  0  0
  -29.2130   -7.9950  -26.9770 C   0  0  0  0  0  0  0  0  0  0  0  0
  -29.1820   -9.9970  -32.0150 C   0  0  0  0  0  0  0  0  0  0  0  0
  -30.2690   -9.4660  -32.2480 O   0  0  0  0  0  0  0  0  0  0  0  0
  -29.3010  -11.5500  -32.0920 C   0  0  0  0  0  0  0  0  0  0  0  0
  -26.5240  -10.5790  -26.9010 C   0  0  0  0  0  0  0  0  0  0  0  0
  1  2  2  0
  1  3  1  0
  1  6  1  0
  2  4  1  0
  3 13  1  0
  4  5  2  0
  5  6  1  0
  6  7  1  0
 13 14  2  0
 13 15  1  0
  7  8  2  0
  7 11  1  0
  8  9  1  0
  9 16  1  0
  9 10  2  0
 10 12  1  0
 11 12  2  0
M  END
>  <name>  (449) 
Car Nac Nd0 Car Nac Nac Car Car Car Car Car Car Cs2 .=O Cs3 Cs3

>  <indices>  (449) 
[0, 1, 2]

>  <tasks>  (449) 
probe_placing close_aromatic_ring close_aromatic_ring close_aromatic_ring ring_built build_to_Nac close_aromatic_ring close_aromatic_ring close_aromatic_ring close_aromatic_ring close_aromatic_ring build_to_Nd0 build_DB_to_Cs2 build_SB_to_Cs2

>  <prot_clashes>  (449) 
11

>  <NBS phar>  (449) 
0.3

>  <NBS_non-phar>  (449) 
0.4536212086677551

>  <NBS>  (449) 
0.7536212086677552

>  <source_stage>  (449) 
scored

>  <source_iter>  (449) 
13

>  <source_parent_mol>  (449) 
1

>  <source_scenario>  (449) 
1 2 3 1 4 7 5 0 0 0 1 0 1

>  <source_rank_in_scored_call>  (449) 
120

>  <source_current_task>  (449) 
no_task

>  <scenario>  (449) 
1 2 3 1 4 7 5 0 0 0 1 0

>  <protected_ring_attachments>  (449) 
1,0,5,6|0,5,6;3,1,0,2|1,0,2;3,4,5,6|4,5,6;4,5,0,2|5,0,2

>  <current_task>  (449) 
no_task

>  <rotatable_bond_torsions>  (449) 
1,0,2,12;0,2,12,14;0,5,6,7

$$$$

     RDKit          3D

 16 17  0  0  0  0  0  0  0  0999 V2000
  -28.1720   -7.9520  -31.1960 C   0  0  0  0  0  0  0  0  0  0  0  0
  -28.5340   -7.0530  -32.1560 N   0  0  0  0  0  0  0  0  0  0  0  0
  -27.7760   -9.3510  -31.5710 N   0  0  0  0  0  0  0  0  0  0  0  0
  -28.8040   -5.8810  -31.5630 C   0  0  0  0  0  0  0  0  0  0  0  0
  -28.6070   -6.0680  -30.2290 N   0  0  0  0  0  0  0  0  0  0  0  0
  -28.2270   -7.3130  -30.0120 N   0  0  0  0  0  0  0  0  0  0  0  0
  -27.8660   -7.8980  -28.7640 C   0  0  0  0  0  0  0  0  0  0  0  0
  -26.6740   -8.5620  -28.5390 C   0  0  0  0  0  0  0  0  0  0  0  0
  -26.4520   -9.1950  -27.3600 C   0  0  0  0  0  0  0  0  0  0  0  0
  -27.3620   -9.2150  -26.3500 C   0  0  0  0  0  0  0  0  0  0  0  0
  -28.8080   -7.9140  -27.7320 C   0  0  0  0  0  0  0  0  0  0  0  0
  -28.5620   -8.5630  -26.5390 C   0  0  0  0  0  0  0  0  0  0  0  0
  -28.7340  -10.2480  -31.6890 C   0  0  0  0  0  0  0  0  0  0  0  0
  -29.9630  -10.1710  -31.6880 O   0  0  0  0  0  0  0  0  0  0  0  0
  -28.2750  -11.7230  -31.9000 C   0  0  0  0  0  0  0  0  0  0  0  0
  -29.6020   -8.5600  -25.4460 C   0  0  0  0  0  0  0  0  0  0  0  0
  1  2  2  0
  1  3  1  0
  1  6  1  0
  2  4  1  0
  3 13  1  0
  4  5  2  0
  5  6  1  0
  6  7  1  0
 13 15  1  0
 13 14  2  0
  7  8  2  0
  7 11  1  0
  8  9  1  0
  9 10  2  0
 10 12  1  0
 11 12  2  0
 12 16  1  0
M  END
>  <name>  (450) 
Car Nac Nd0 Car Nac Nac Car Car Car Car Car Car Cs2 .=O Cs3 Cs3

>  <indices>  (450) 
[0, 1, 2]

>  <tasks>  (450) 
probe_placing close_aromatic_ring close_aromatic_ring close_aromatic_ring ring_built build_to_Nac close_aromatic_ring close_aromatic_ring close_aromatic_ring close_aromatic_ring close_aromatic_ring build_to_Nd0 build_DB_to_Cs2 build_SB_to_Cs2

>  <prot_clashes>  (450) 
7

>  <NBS phar>  (450) 
0.24000000000000005

>  <NBS_non-phar>  (450) 
0.4705517888069153

>  <NBS>  (450) 
0.7105517888069153

>  <source_stage>  (450) 
scored

>  <source_iter>  (450) 
13

>  <source_parent_mol>  (450) 
1

>  <source_scenario>  (450) 
1 2 3 1 4 7 5 0 0 0 1 0 1

>  <source_rank_in_scored_call>  (450) 
122

>  <source_current_task>  (450) 
no_task

>  <scenario>  (450) 
1 2 3 1 4 7 5 0 0 0 1 0

>  <protected_ring_attachments>  (450) 
1,0,5,6|0,5,6;3,1,0,2|1,0,2;3,4,5,6|4,5,6;4,5,0,2|5,0,2

>  <current_task>  (450) 
no_task

>  <rotatable_bond_torsions>  (450) 
1,0,2,12;0,2,12,14;0,5,6,7

$$$$

     RDKit          3D

 15 16  0  0  0  0  0  0  0  0999 V2000
  -27.9650   -7.5200  -31.7090 C   0  0  0  0  0  0  0  0  0  0  0  0
  -28.0640   -6.5530  -32.6650 N   0  0  0  0  0  0  0  0  0  0  0  0
  -27.8440   -8.9660  -32.0990 N   0  0  0  0  0  0  0  0  0  0  0  0
  -28.1240   -5.3560  -32.0570 C   0  0  0  0  0  0  0  0  0  0  0  0
  -28.0630   -5.6000  -30.7190 N   0  0  0  0  0  0  0  0  0  0  0  0
  -27.9650   -6.9000  -30.5130 N   0  0  0  0  0  0  0  0  0  0  0  0
  -27.8210   -7.5660  -29.2630 C   0  0  0  0  0  0  0  0  0  0  0  0
  -26.8100   -8.4690  -28.9810 C   0  0  0  0  0  0  0  0  0  0  0  0
  -26.8060   -9.1500  -27.8080 C   0  0  0  0  0  0  0  0  0  0  0  0
  -27.7670   -8.9950  -26.8600 C   0  0  0  0  0  0  0  0  0  0  0  0
  -28.8150   -7.4000  -28.2940 C   0  0  0  0  0  0  0  0  0  0  0  0
  -28.7890   -8.1040  -27.1050 C   0  0  0  0  0  0  0  0  0  0  0  0
  -28.8120   -9.9180  -31.6820 C   0  0  0  0  0  0  0  0  0  0  0  0
  -29.8640   -9.6900  -31.1230 O   0  0  0  0  0  0  0  0  0  0  0  0
  -28.5200  -11.3620  -31.9880 C   0  0  0  0  0  0  0  0  0  0  0  0
  1  2  2  0
  1  3  1  0
  1  6  1  0
  2  4  1  0
  3 13  1  0
  4  5  2  0
  5  6  1  0
  6  7  1  0
 13 15  1  0
 13 14  2  0
  7  8  2  0
  7 11  1  0
  8  9  1  0
  9 10  2  0
 10 12  1  0
 11 12  2  0
M  END
>  <name>  (451) 
Car Nac Nd0 Car Nac Nac Car Car Car Car Car Car Cs2 .=O Cs3

>  <indices>  (451) 
[0, 1, 2]

>  <tasks>  (451) 
probe_placing close_aromatic_ring close_aromatic_ring close_aromatic_ring ring_built build_to_Nac close_aromatic_ring close_aromatic_ring close_aromatic_ring close_aromatic_ring close_aromatic_ring build_to_Nd0 build_DB_to_Cs2

>  <prot_clashes>  (451) 
4

>  <NBS phar>  (451) 
0.24000000000000005

>  <NBS_non-phar>  (451) 
0.6290590286254882

>  <NBS>  (451) 
0.8690590286254882

>  <source_stage>  (451) 
scored

>  <source_iter>  (451) 
12

>  <source_parent_mol>  (451) 
0

>  <source_scenario>  (451) 
1 2 3 1 4 7 5 0 0 0 6 0

>  <source_rank_in_scored_call>  (451) 
2

>  <source_current_task>  (451) 
build_SB_to_Cs2

>  <scenario>  (451) 
1 2 3 1 4 7 5 0 0 0 6

>  <protected_ring_attachments>  (451) 
1,0,5,6|0,5,6;3,1,0,2|1,0,2;3,4,5,6|4,5,6;4,5,0,2|5,0,2

>  <current_task>  (451) 
no_task

>  <rotatable_bond_torsions>  (451) 
1,0,2,12;0,2,12,13;0,5,6,7

$$$$

     RDKit          3D

 16 17  0  0  0  0  0  0  0  0999 V2000
  -28.1230   -7.8540  -31.5140 C   0  0  0  0  0  0  0  0  0  0  0  0
  -28.2010   -6.9740  -32.5520 N   0  0  0  0  0  0  0  0  0  0  0  0
  -28.1410   -9.3350  -31.7690 N   0  0  0  0  0  0  0  0  0  0  0  0
  -28.1300   -5.7260  -32.0590 C   0  0  0  0  0  0  0  0  0  0  0  0
  -28.0090   -5.8510  -30.7090 N   0  0  0  0  0  0  0  0  0  0  0  0
  -28.0030   -7.1300  -30.3840 N   0  0  0  0  0  0  0  0  0  0  0  0
  -27.8380   -7.6890  -29.0850 C   0  0  0  0  0  0  0  0  0  0  0  0
  -26.8870   -8.6450  -28.7700 C   0  0  0  0  0  0  0  0  0  0  0  0
  -26.8680   -9.2140  -27.5390 C   0  0  0  0  0  0  0  0  0  0  0  0
  -27.7560   -8.8920  -26.5620 C   0  0  0  0  0  0  0  0  0  0  0  0
  -28.7570   -7.3520  -28.0870 C   0  0  0  0  0  0  0  0  0  0  0  0
  -28.7170   -7.9440  -26.8390 C   0  0  0  0  0  0  0  0  0  0  0  0
  -29.1550  -10.1600  -31.2130 C   0  0  0  0  0  0  0  0  0  0  0  0
  -30.1500   -9.7930  -30.6250 O   0  0  0  0  0  0  0  0  0  0  0  0
  -28.9970  -11.6450  -31.3940 C   0  0  0  0  0  0  0  0  0  0  0  0
  -28.0720  -11.9420  -32.5300 C   0  0  0  0  0  0  0  0  0  0  0  0
  1  2  2  0
  1  3  1  0
  1  6  1  0
  2  4  1  0
  3 13  1  0
  4  5  2  0
  5  6  1  0
  6  7  1  0
 13 15  1  0
 13 14  2  0
  7  8  2  0
  7 11  1  0
  8  9  1  0
  9 10  2  0
 10 12  1  0
 11 12  2  0
 15 16  1  0
M  END
>  <name>  (452) 
Car Nac Nd0 Car Nac Nac Car Car Car Car Car Car Cs2 .=O Cs3 Cs3

>  <indices>  (452) 
[0, 1, 2]

>  <tasks>  (452) 
probe_placing close_aromatic_ring close_aromatic_ring close_aromatic_ring ring_built build_to_Nac close_aromatic_ring close_aromatic_ring close_aromatic_ring close_aromatic_ring close_aromatic_ring build_to_Nd0 build_DB_to_Cs2 build_SB_to_Cs2

>  <prot_clashes>  (452) 
5

>  <NBS phar>  (452) 
0.36000000000000004

>  <NBS_non-phar>  (452) 
0.6134659051895142

>  <NBS>  (452) 
0.9734659051895143

>  <source_stage>  (452) 
scored

>  <source_iter>  (452) 
13

>  <source_parent_mol>  (452) 
1

>  <source_scenario>  (452) 
1 2 3 1 4 7 5 0 0 0 6 0 1

>  <source_rank_in_scored_call>  (452) 
6

>  <source_current_task>  (452) 
no_task

>  <scenario>  (452) 
1 2 3 1 4 7 5 0 0 0 6 0

>  <protected_ring_attachments>  (452) 
1,0,5,6|0,5,6;3,1,0,2|1,0,2;3,4,5,6|4,5,6;4,5,0,2|5,0,2

>  <current_task>  (452) 
no_task

>  <rotatable_bond_torsions>  (452) 
1,0,2,12;0,2,12,14;0,5,6,7

$$$$

     RDKit          3D

 16 17  0  0  0  0  0  0  0  0999 V2000
  -28.1450   -7.8510  -31.5200 C   0  0  0  0  0  0  0  0  0  0  0  0
  -28.2100   -6.9690  -32.5580 N   0  0  0  0  0  0  0  0  0  0  0  0
  -28.1610   -9.3310  -31.7780 N   0  0  0  0  0  0  0  0  0  0  0  0
  -28.1430   -5.7220  -32.0630 C   0  0  0  0  0  0  0  0  0  0  0  0
  -28.0390   -5.8480  -30.7120 N   0  0  0  0  0  0  0  0  0  0  0  0
  -28.0380   -7.1280  -30.3890 N   0  0  0  0  0  0  0  0  0  0  0  0
  -27.8900   -7.6880  -29.0890 C   0  0  0  0  0  0  0  0  0  0  0  0
  -26.9440   -8.6450  -28.7630 C   0  0  0  0  0  0  0  0  0  0  0  0
  -26.9400   -9.2160  -27.5330 C   0  0  0  0  0  0  0  0  0  0  0  0
  -27.8390   -8.8940  -26.5660 C   0  0  0  0  0  0  0  0  0  0  0  0
  -28.8200   -7.3510  -28.1010 C   0  0  0  0  0  0  0  0  0  0  0  0
  -28.7950   -7.9450  -26.8530 C   0  0  0  0  0  0  0  0  0  0  0  0
  -29.1830  -10.1550  -31.2350 C   0  0  0  0  0  0  0  0  0  0  0  0
  -30.1850   -9.7890  -30.6590 O   0  0  0  0  0  0  0  0  0  0  0  0
  -29.0240  -11.6410  -31.4160 C   0  0  0  0  0  0  0  0  0  0  0  0
  -28.0770  -11.9170  -32.4710 C   0  0  0  0  0  0  0  0  0  0  0  0
  1  2  2  0
  1  3  1  0
  1  6  1  0
  2  4  1  0
  3 13  1  0
  4  5  2  0
  5  6  1  0
  6  7  1  0
 13 15  1  0
 13 14  2  0
  7  8  2  0
  7 11  1  0
  8  9  1  0
  9 10  2  0
 10 12  1  0
 11 12  2  0
 15 16  1  0
M  END
>  <name>  (453) 
Car Nac Nd0 Car Nac Nac Car Car Car Car Car Car Cs2 .=O Cs3 Cs3

>  <indices>  (453) 
[0, 1, 2]

>  <tasks>  (453) 
probe_placing close_aromatic_ring close_aromatic_ring close_aromatic_ring ring_built build_to_Nac close_aromatic_ring close_aromatic_ring close_aromatic_ring close_aromatic_ring close_aromatic_ring build_to_Nd0 build_DB_to_Cs2 build_SB_to_Cs2

>  <prot_clashes>  (453) 
7

>  <NBS phar>  (453) 
0.36000000000000004

>  <NBS_non-phar>  (453) 
0.6071172952651978

>  <NBS>  (453) 
0.9671172952651979

>  <source_stage>  (453) 
scored

>  <source_iter>  (453) 
13

>  <source_parent_mol>  (453) 
1

>  <source_scenario>  (453) 
1 2 3 1 4 7 5 0 0 0 6 0 1

>  <source_rank_in_scored_call>  (453) 
8

>  <source_current_task>  (453) 
no_task

>  <scenario>  (453) 
1 2 3 1 4 7 5 0 0 0 6 0

>  <protected_ring_attachments>  (453) 
1,0,5,6|0,5,6;3,1,0,2|1,0,2;3,4,5,6|4,5,6;4,5,0,2|5,0,2

>  <current_task>  (453) 
no_task

>  <rotatable_bond_torsions>  (453) 
1,0,2,12;0,2,12,14;0,5,6,7

$$$$

     RDKit          3D

 16 17  0  0  0  0  0  0  0  0999 V2000
  -27.8890   -7.8560  -31.4770 C   0  0  0  0  0  0  0  0  0  0  0  0
  -28.0620   -6.9920  -32.5180 N   0  0  0  0  0  0  0  0  0  0  0  0
  -27.6190   -9.3110  -31.7340 N   0  0  0  0  0  0  0  0  0  0  0  0
  -28.2520   -5.7580  -32.0210 C   0  0  0  0  0  0  0  0  0  0  0  0
  -28.1960   -5.8750  -30.6650 N   0  0  0  0  0  0  0  0  0  0  0  0
  -27.9750   -7.1360  -30.3420 N   0  0  0  0  0  0  0  0  0  0  0  0
  -27.7930   -7.6710  -29.0360 C   0  0  0  0  0  0  0  0  0  0  0  0
  -26.7050   -8.4400  -28.6610 C   0  0  0  0  0  0  0  0  0  0  0  0
  -26.6590   -9.0110  -27.4310 C   0  0  0  0  0  0  0  0  0  0  0  0
  -27.6500   -8.8700  -26.5130 C   0  0  0  0  0  0  0  0  0  0  0  0
  -28.8190   -7.5200  -28.0980 C   0  0  0  0  0  0  0  0  0  0  0  0
  -28.7490   -8.1100  -26.8500 C   0  0  0  0  0  0  0  0  0  0  0  0
  -28.4970  -10.3140  -31.2450 C   0  0  0  0  0  0  0  0  0  0  0  0
  -29.5780  -10.1440  -30.7220 O   0  0  0  0  0  0  0  0  0  0  0  0
  -28.0590  -11.7440  -31.4160 C   0  0  0  0  0  0  0  0  0  0  0  0
  -28.6340  -12.3030  -32.7200 C   0  0  0  0  0  0  0  0  0  0  0  0
  1  2  2  0
  1  3  1  0
  1  6  1  0
  2  4  1  0
  3 13  1  0
  4  5  2  0
  5  6  1  0
  6  7  1  0
 13 15  1  0
 13 14  2  0
  7  8  2  0
  7 11  1  0
  8  9  1  0
  9 10  2  0
 10 12  1  0
 11 12  2  0
 15 16  1  0
M  END
>  <name>  (454) 
Car Nac Nd0 Car Nac Nac Car Car Car Car Car Car Cs2 .=O Cs3 Cs3

>  <indices>  (454) 
[0, 1, 2]

>  <tasks>  (454) 
probe_placing close_aromatic_ring close_aromatic_ring close_aromatic_ring ring_built build_to_Nac close_aromatic_ring close_aromatic_ring close_aromatic_ring close_aromatic_ring close_aromatic_ring build_to_Nd0 build_DB_to_Cs2 build_SB_to_Cs2

>  <prot_clashes>  (454) 
5

>  <NBS phar>  (454) 
0.34

>  <NBS_non-phar>  (454) 
0.6179022789001465

>  <NBS>  (454) 
0.9579022789001466

>  <source_stage>  (454) 
scored

>  <source_iter>  (454) 
13

>  <source_parent_mol>  (454) 
1

>  <source_scenario>  (454) 
1 2 3 1 4 7 5 0 0 0 6 0 1

>  <source_rank_in_scored_call>  (454) 
9

>  <source_current_task>  (454) 
no_task

>  <scenario>  (454) 
1 2 3 1 4 7 5 0 0 0 6 0

>  <protected_ring_attachments>  (454) 
1,0,5,6|0,5,6;3,1,0,2|1,0,2;3,4,5,6|4,5,6;4,5,0,2|5,0,2

>  <current_task>  (454) 
no_task

>  <rotatable_bond_torsions>  (454) 
1,0,2,12;0,2,12,14;0,5,6,7

$$$$

     RDKit          3D

 16 17  0  0  0  0  0  0  0  0999 V2000
  -28.0670   -7.5770  -31.7690 C   0  0  0  0  0  0  0  0  0  0  0  0
  -28.1090   -6.6130  -32.7310 N   0  0  0  0  0  0  0  0  0  0  0  0
  -28.0850   -9.0310  -32.1470 N   0  0  0  0  0  0  0  0  0  0  0  0
  -28.0450   -5.4100  -32.1340 C   0  0  0  0  0  0  0  0  0  0  0  0
  -27.9660   -5.6490  -30.7960 N   0  0  0  0  0  0  0  0  0  0  0  0
  -27.9760   -6.9510  -30.5800 N   0  0  0  0  0  0  0  0  0  0  0  0
  -27.8540   -7.6170  -29.3280 C   0  0  0  0  0  0  0  0  0  0  0  0
  -26.9180   -8.6040  -29.0660 C   0  0  0  0  0  0  0  0  0  0  0  0
  -26.9390   -9.2730  -27.8870 C   0  0  0  0  0  0  0  0  0  0  0  0
  -27.8540   -9.0270  -26.9130 C   0  0  0  0  0  0  0  0  0  0  0  0
  -28.8000   -7.3570  -28.3320 C   0  0  0  0  0  0  0  0  0  0  0  0
  -28.8000   -8.0510  -27.1370 C   0  0  0  0  0  0  0  0  0  0  0  0
  -29.1200   -9.8910  -31.6920 C   0  0  0  0  0  0  0  0  0  0  0  0
  -30.1310   -9.5670  -31.1050 O   0  0  0  0  0  0  0  0  0  0  0  0
  -28.9660  -11.3570  -31.9920 C   0  0  0  0  0  0  0  0  0  0  0  0
  -27.6790  -11.9200  -31.3510 C   0  0  0  0  0  0  0  0  0  0  0  0
  1  2  2  0
  1  3  1  0
  1  6  1  0
  2  4  1  0
  3 13  1  0
  4  5  2  0
  5  6  1  0
  6  7  1  0
 13 15  1  0
 13 14  2  0
  7  8  2  0
  7 11  1  0
  8  9  1  0
  9 10  2  0
 10 12  1  0
 11 12  2  0
 15 16  1  0
M  END
>  <name>  (455) 
Car Nac Nd0 Car Nac Nac Car Car Car Car Car Car Cs2 .=O Cs3 Cs3

>  <indices>  (455) 
[0, 1, 2]

>  <tasks>  (455) 
probe_placing close_aromatic_ring close_aromatic_ring close_aromatic_ring ring_built build_to_Nac close_aromatic_ring close_aromatic_ring close_aromatic_ring close_aromatic_ring close_aromatic_ring build_to_Nd0 build_DB_to_Cs2 build_SB_to_Cs2

>  <prot_clashes>  (455) 
6

>  <NBS phar>  (455) 
0.26

>  <NBS_non-phar>  (455) 
0.6831299066543579

>  <NBS>  (455) 
0.9431299066543579

>  <source_stage>  (455) 
scored

>  <source_iter>  (455) 
13

>  <source_parent_mol>  (455) 
1

>  <source_scenario>  (455) 
1 2 3 1 4 7 5 0 0 0 6 0 1

>  <source_rank_in_scored_call>  (455) 
14

>  <source_current_task>  (455) 
no_task

>  <scenario>  (455) 
1 2 3 1 4 7 5 0 0 0 6 0

>  <protected_ring_attachments>  (455) 
1,0,5,6|0,5,6;3,1,0,2|1,0,2;3,4,5,6|4,5,6;4,5,0,2|5,0,2

>  <current_task>  (455) 
no_task

>  <rotatable_bond_torsions>  (455) 
1,0,2,12;0,2,12,14;0,5,6,7

$$$$

     RDKit          3D

 16 17  0  0  0  0  0  0  0  0999 V2000
  -28.1910   -7.9550  -31.4950 C   0  0  0  0  0  0  0  0  0  0  0  0
  -28.2960   -7.0830  -32.5380 N   0  0  0  0  0  0  0  0  0  0  0  0
  -28.1800   -9.4370  -31.7400 N   0  0  0  0  0  0  0  0  0  0  0  0
  -28.2460   -5.8300  -32.0550 C   0  0  0  0  0  0  0  0  0  0  0  0
  -28.1110   -5.9430  -30.7050 N   0  0  0  0  0  0  0  0  0  0  0  0
  -28.0760   -7.2200  -30.3720 N   0  0  0  0  0  0  0  0  0  0  0  0
  -27.8900   -7.7660  -29.0700 C   0  0  0  0  0  0  0  0  0  0  0  0
  -26.9170   -8.7000  -28.7570 C   0  0  0  0  0  0  0  0  0  0  0  0
  -26.8760   -9.2590  -27.5220 C   0  0  0  0  0  0  0  0  0  0  0  0
  -27.7620   -8.9490  -26.5400 C   0  0  0  0  0  0  0  0  0  0  0  0
  -28.8070   -7.4400  -28.0660 C   0  0  0  0  0  0  0  0  0  0  0  0
  -28.7440   -8.0220  -26.8140 C   0  0  0  0  0  0  0  0  0  0  0  0
  -29.1730  -10.2780  -31.1700 C   0  0  0  0  0  0  0  0  0  0  0  0
  -30.1710   -9.9280  -30.5760 O   0  0  0  0  0  0  0  0  0  0  0  0
  -28.9860  -11.7610  -31.3410 C   0  0  0  0  0  0  0  0  0  0  0  0
  -27.7170  -12.0760  -32.1240 C   0  0  0  0  0  0  0  0  0  0  0  0
  1  2  2  0
  1  3  1  0
  1  6  1  0
  2  4  1  0
  3 13  1  0
  4  5  2  0
  5  6  1  0
  6  7  1  0
 13 15  1  0
 13 14  2  0
  7  8  2  0
  7 11  1  0
  8  9  1  0
  9 10  2  0
 10 12  1  0
 11 12  2  0
 15 16  1  0
M  END
>  <name>  (456) 
Car Nac Nd0 Car Nac Nac Car Car Car Car Car Car Cs2 .=O Cs3 Cs3

>  <indices>  (456) 
[0, 1, 2]

>  <tasks>  (456) 
probe_placing close_aromatic_ring close_aromatic_ring close_aromatic_ring ring_built build_to_Nac close_aromatic_ring close_aromatic_ring close_aromatic_ring close_aromatic_ring close_aromatic_ring build_to_Nd0 build_DB_to_Cs2 build_SB_to_Cs2

>  <prot_clashes>  (456) 
5

>  <NBS phar>  (456) 
0.34

>  <NBS_non-phar>  (456) 
0.588939905166626

>  <NBS>  (456) 
0.9289399051666261

>  <source_stage>  (456) 
scored

>  <source_iter>  (456) 
13

>  <source_parent_mol>  (456) 
1

>  <source_scenario>  (456) 
1 2 3 1 4 7 5 0 0 0 6 0 1

>  <source_rank_in_scored_call>  (456) 
19

>  <source_current_task>  (456) 
no_task

>  <scenario>  (456) 
1 2 3 1 4 7 5 0 0 0 6 0

>  <protected_ring_attachments>  (456) 
1,0,5,6|0,5,6;3,1,0,2|1,0,2;3,4,5,6|4,5,6;4,5,0,2|5,0,2

>  <current_task>  (456) 
no_task

>  <rotatable_bond_torsions>  (456) 
1,0,2,12;0,2,12,14;0,5,6,7

$$$$

     RDKit          3D

 16 17  0  0  0  0  0  0  0  0999 V2000
  -28.1660   -7.9630  -31.4890 C   0  0  0  0  0  0  0  0  0  0  0  0
  -28.2530   -7.0810  -32.5250 N   0  0  0  0  0  0  0  0  0  0  0  0
  -28.1610   -9.4430  -31.7480 N   0  0  0  0  0  0  0  0  0  0  0  0
  -28.2020   -5.8330  -32.0290 C   0  0  0  0  0  0  0  0  0  0  0  0
  -28.0860   -5.9600  -30.6790 N   0  0  0  0  0  0  0  0  0  0  0  0
  -28.0620   -7.2390  -30.3570 N   0  0  0  0  0  0  0  0  0  0  0  0
  -27.8950   -7.7990  -29.0590 C   0  0  0  0  0  0  0  0  0  0  0  0
  -26.9310   -8.7410  -28.7420 C   0  0  0  0  0  0  0  0  0  0  0  0
  -26.9090   -9.3130  -27.5120 C   0  0  0  0  0  0  0  0  0  0  0  0
  -27.8060   -9.0060  -26.5380 C   0  0  0  0  0  0  0  0  0  0  0  0
  -28.8230   -7.4770  -28.0640 C   0  0  0  0  0  0  0  0  0  0  0  0
  -28.7790   -8.0720  -26.8170 C   0  0  0  0  0  0  0  0  0  0  0  0
  -29.1650  -10.2840  -31.1980 C   0  0  0  0  0  0  0  0  0  0  0  0
  -30.1680   -9.9340  -30.6140 O   0  0  0  0  0  0  0  0  0  0  0  0
  -28.9840  -11.7660  -31.3820 C   0  0  0  0  0  0  0  0  0  0  0  0
  -28.0650  -12.0690  -32.5040 C   0  0  0  0  0  0  0  0  0  0  0  0
  1  2  2  0
  1  3  1  0
  1  6  1  0
  2  4  1  0
  3 13  1  0
  4  5  2  0
  5  6  1  0
  6  7  1  0
 13 15  1  0
 13 14  2  0
  7  8  2  0
  7 11  1  0
  8  9  1  0
  9 10  2  0
 10 12  1  0
 11 12  2  0
 15 16  1  0
M  END
>  <name>  (457) 
Car Nac Nd0 Car Nac Nac Car Car Car Car Car Car Cs2 .=O Cs3 Cs3

>  <indices>  (457) 
[0, 1, 2]

>  <tasks>  (457) 
probe_placing close_aromatic_ring close_aromatic_ring close_aromatic_ring ring_built build_to_Nac close_aromatic_ring close_aromatic_ring close_aromatic_ring close_aromatic_ring close_aromatic_ring build_to_Nd0 build_DB_to_Cs2 build_SB_to_Cs2

>  <prot_clashes>  (457) 
6

>  <NBS phar>  (457) 
0.34

>  <NBS_non-phar>  (457) 
0.5873218178749084

>  <NBS>  (457) 
0.9273218178749085

>  <source_stage>  (457) 
scored

>  <source_iter>  (457) 
13

>  <source_parent_mol>  (457) 
1

>  <source_scenario>  (457) 
1 2 3 1 4 7 5 0 0 0 6 0 1

>  <source_rank_in_scored_call>  (457) 
20

>  <source_current_task>  (457) 
no_task

>  <scenario>  (457) 
1 2 3 1 4 7 5 0 0 0 6 0

>  <protected_ring_attachments>  (457) 
1,0,5,6|0,5,6;3,1,0,2|1,0,2;3,4,5,6|4,5,6;4,5,0,2|5,0,2

>  <current_task>  (457) 
no_task

>  <rotatable_bond_torsions>  (457) 
1,0,2,12;0,2,12,14;0,5,6,7

$$$$

     RDKit          3D

 16 17  0  0  0  0  0  0  0  0999 V2000
  -27.9010   -7.6170  -31.6650 C   0  0  0  0  0  0  0  0  0  0  0  0
  -28.0590   -6.7030  -32.6650 N   0  0  0  0  0  0  0  0  0  0  0  0
  -27.6620   -9.0640  -31.9880 N   0  0  0  0  0  0  0  0  0  0  0  0
  -28.2220   -5.4890  -32.1120 C   0  0  0  0  0  0  0  0  0  0  0  0
  -28.1650   -5.6690  -30.7640 N   0  0  0  0  0  0  0  0  0  0  0  0
  -27.9700   -6.9470  -30.4980 N   0  0  0  0  0  0  0  0  0  0  0  0
  -27.7960   -7.5440  -29.2180 C   0  0  0  0  0  0  0  0  0  0  0  0
  -26.7220   -8.3520  -28.8820 C   0  0  0  0  0  0  0  0  0  0  0  0
  -26.6850   -8.9790  -27.6800 C   0  0  0  0  0  0  0  0  0  0  0  0
  -27.6710   -8.8580  -26.7530 C   0  0  0  0  0  0  0  0  0  0  0  0
  -28.8160   -7.4140  -28.2710 C   0  0  0  0  0  0  0  0  0  0  0  0
  -28.7550   -8.0620  -27.0510 C   0  0  0  0  0  0  0  0  0  0  0  0
  -28.5600  -10.0700  -31.5420 C   0  0  0  0  0  0  0  0  0  0  0  0
  -29.6360   -9.9010  -31.0080 O   0  0  0  0  0  0  0  0  0  0  0  0
  -28.1510  -11.4990  -31.7790 C   0  0  0  0  0  0  0  0  0  0  0  0
  -28.6890  -12.5120  -30.7750 C   0  0  0  0  0  0  0  0  0  0  0  0
  1  2  2  0
  1  3  1  0
  1  6  1  0
  2  4  1  0
  3 13  1  0
  4  5  2  0
  5  6  1  0
  6  7  1  0
 13 15  1  0
 13 14  2  0
  7  8  2  0
  7 11  1  0
  8  9  1  0
  9 10  2  0
 10 12  1  0
 11 12  2  0
 15 16  1  0
M  END
>  <name>  (458) 
Car Nac Nd0 Car Nac Nac Car Car Car Car Car Car Cs2 .=O Cs3 Cs3

>  <indices>  (458) 
[0, 1, 2]

>  <tasks>  (458) 
probe_placing close_aromatic_ring close_aromatic_ring close_aromatic_ring ring_built build_to_Nac close_aromatic_ring close_aromatic_ring close_aromatic_ring close_aromatic_ring close_aromatic_ring build_to_Nd0 build_DB_to_Cs2 build_SB_to_Cs2

>  <prot_clashes>  (458) 
4

>  <NBS phar>  (458) 
0.34

>  <NBS_non-phar>  (458) 
0.5770115852355957

>  <NBS>  (458) 
0.9170115852355958

>  <source_stage>  (458) 
scored

>  <source_iter>  (458) 
13

>  <source_parent_mol>  (458) 
1

>  <source_scenario>  (458) 
1 2 3 1 4 7 5 0 0 0 6 0 1

>  <source_rank_in_scored_call>  (458) 
26

>  <source_current_task>  (458) 
no_task

>  <scenario>  (458) 
1 2 3 1 4 7 5 0 0 0 6 0

>  <protected_ring_attachments>  (458) 
1,0,5,6|0,5,6;3,1,0,2|1,0,2;3,4,5,6|4,5,6;4,5,0,2|5,0,2

>  <current_task>  (458) 
no_task

>  <rotatable_bond_torsions>  (458) 
1,0,2,12;0,2,12,14;0,5,6,7

$$$$

     RDKit          3D

 16 17  0  0  0  0  0  0  0  0999 V2000
  -28.0590   -7.5790  -31.7700 C   0  0  0  0  0  0  0  0  0  0  0  0
  -28.1030   -6.6240  -32.7410 N   0  0  0  0  0  0  0  0  0  0  0  0
  -28.0630   -9.0370  -32.1360 N   0  0  0  0  0  0  0  0  0  0  0  0
  -28.0530   -5.4160  -32.1540 C   0  0  0  0  0  0  0  0  0  0  0  0
  -27.9790   -5.6410  -30.8140 N   0  0  0  0  0  0  0  0  0  0  0  0
  -27.9800   -6.9410  -30.5860 N   0  0  0  0  0  0  0  0  0  0  0  0
  -27.8600   -7.5960  -29.3270 C   0  0  0  0  0  0  0  0  0  0  0  0
  -26.9180   -8.5720  -29.0520 C   0  0  0  0  0  0  0  0  0  0  0  0
  -26.9400   -9.2320  -27.8670 C   0  0  0  0  0  0  0  0  0  0  0  0
  -27.8620   -8.9840  -26.9000 C   0  0  0  0  0  0  0  0  0  0  0  0
  -28.8140   -7.3340  -28.3390 C   0  0  0  0  0  0  0  0  0  0  0  0
  -28.8150   -8.0180  -27.1380 C   0  0  0  0  0  0  0  0  0  0  0  0
  -29.0940   -9.9010  -31.6790 C   0  0  0  0  0  0  0  0  0  0  0  0
  -30.1110   -9.5800  -31.1000 O   0  0  0  0  0  0  0  0  0  0  0  0
  -28.9260  -11.3680  -31.9650 C   0  0  0  0  0  0  0  0  0  0  0  0
  -27.6920  -12.0030  -31.2430 C   0  0  0  0  0  0  0  0  0  0  0  0
  1  2  2  0
  1  3  1  0
  1  6  1  0
  2  4  1  0
  3 13  1  0
  4  5  2  0
  5  6  1  0
  6  7  1  0
 13 15  1  0
 13 14  2  0
  7  8  2  0
  7 11  1  0
  8  9  1  0
  9 10  2  0
 10 12  1  0
 11 12  2  0
 15 16  1  0
M  END
>  <name>  (459) 
Car Nac Nd0 Car Nac Nac Car Car Car Car Car Car Cs2 .=O Cs3 Cs3

>  <indices>  (459) 
[0, 1, 2]

>  <tasks>  (459) 
probe_placing close_aromatic_ring close_aromatic_ring close_aromatic_ring ring_built build_to_Nac close_aromatic_ring close_aromatic_ring close_aromatic_ring close_aromatic_ring close_aromatic_ring build_to_Nd0 build_DB_to_Cs2 build_SB_to_Cs2

>  <prot_clashes>  (459) 
7

>  <NBS phar>  (459) 
0.24

>  <NBS_non-phar>  (459) 
0.6756500005722046

>  <NBS>  (459) 
0.9156500005722046

>  <source_stage>  (459) 
scored

>  <source_iter>  (459) 
13

>  <source_parent_mol>  (459) 
1

>  <source_scenario>  (459) 
1 2 3 1 4 7 5 0 0 0 6 0 1

>  <source_rank_in_scored_call>  (459) 
27

>  <source_current_task>  (459) 
no_task

>  <scenario>  (459) 
1 2 3 1 4 7 5 0 0 0 6 0

>  <protected_ring_attachments>  (459) 
1,0,5,6|0,5,6;3,1,0,2|1,0,2;3,4,5,6|4,5,6;4,5,0,2|5,0,2

>  <current_task>  (459) 
no_task

>  <rotatable_bond_torsions>  (459) 
1,0,2,12;0,2,12,14;0,5,6,7

$$$$

     RDKit          3D

 16 17  0  0  0  0  0  0  0  0999 V2000
  -27.8940   -7.6510  -31.5110 C   0  0  0  0  0  0  0  0  0  0  0  0
  -28.0890   -6.7480  -32.5140 N   0  0  0  0  0  0  0  0  0  0  0  0
  -27.5980   -9.0890  -31.8290 N   0  0  0  0  0  0  0  0  0  0  0  0
  -28.2990   -5.5390  -31.9660 C   0  0  0  0  0  0  0  0  0  0  0  0
  -28.2330   -5.7110  -30.6170 N   0  0  0  0  0  0  0  0  0  0  0  0
  -27.9880   -6.9800  -30.3470 N   0  0  0  0  0  0  0  0  0  0  0  0
  -27.7880   -7.5650  -29.0640 C   0  0  0  0  0  0  0  0  0  0  0  0
  -26.6840   -8.3280  -28.7270 C   0  0  0  0  0  0  0  0  0  0  0  0
  -26.6200   -8.9480  -27.5220 C   0  0  0  0  0  0  0  0  0  0  0  0
  -27.6090   -8.8630  -26.5940 C   0  0  0  0  0  0  0  0  0  0  0  0
  -28.8120   -7.4710  -28.1160 C   0  0  0  0  0  0  0  0  0  0  0  0
  -28.7240   -8.1110  -26.8940 C   0  0  0  0  0  0  0  0  0  0  0  0
  -28.4560  -10.1280  -31.3770 C   0  0  0  0  0  0  0  0  0  0  0  0
  -29.5360   -9.9990  -30.8430 O   0  0  0  0  0  0  0  0  0  0  0  0
  -27.9910  -11.5400  -31.6090 C   0  0  0  0  0  0  0  0  0  0  0  0
  -29.1680  -12.4180  -31.8380 C   0  0  0  0  0  0  0  0  0  0  0  0
  1  2  2  0
  1  3  1  0
  1  6  1  0
  2  4  1  0
  3 13  1  0
  4  5  2  0
  5  6  1  0
  6  7  1  0
 13 15  1  0
 13 14  2  0
  7  8  2  0
  7 11  1  0
  8  9  1  0
  9 10  2  0
 10 12  1  0
 11 12  2  0
 15 16  1  0
M  END
>  <name>  (460) 
Car Nac Nd0 Car Nac Nac Car Car Car Car Car Car Cs2 .=O Cs3 Cs3

>  <indices>  (460) 
[0, 1, 2]

>  <tasks>  (460) 
probe_placing close_aromatic_ring close_aromatic_ring close_aromatic_ring ring_built build_to_Nac close_aromatic_ring close_aromatic_ring close_aromatic_ring close_aromatic_ring close_aromatic_ring build_to_Nd0 build_DB_to_Cs2 build_SB_to_Cs2

>  <prot_clashes>  (460) 
8

>  <NBS phar>  (460) 
0.34

>  <NBS_non-phar>  (460) 
0.5611299872398376

>  <NBS>  (460) 
0.9011299872398377

>  <source_stage>  (460) 
scored

>  <source_iter>  (460) 
13

>  <source_parent_mol>  (460) 
1

>  <source_scenario>  (460) 
1 2 3 1 4 7 5 0 0 0 6 0 1

>  <source_rank_in_scored_call>  (460) 
34

>  <source_current_task>  (460) 
no_task

>  <scenario>  (460) 
1 2 3 1 4 7 5 0 0 0 6 0

>  <protected_ring_attachments>  (460) 
1,0,5,6|0,5,6;3,1,0,2|1,0,2;3,4,5,6|4,5,6;4,5,0,2|5,0,2

>  <current_task>  (460) 
no_task

>  <rotatable_bond_torsions>  (460) 
1,0,2,12;0,2,12,14;0,5,6,7

$$$$

     RDKit          3D

 16 17  0  0  0  0  0  0  0  0999 V2000
  -27.8490   -7.8190  -31.2190 C   0  0  0  0  0  0  0  0  0  0  0  0
  -27.8610   -6.8200  -32.1460 N   0  0  0  0  0  0  0  0  0  0  0  0
  -27.7770   -9.2570  -31.6510 N   0  0  0  0  0  0  0  0  0  0  0  0
  -27.8940   -5.6410  -31.5020 C   0  0  0  0  0  0  0  0  0  0  0  0
  -27.9040   -5.9290  -30.1710 N   0  0  0  0  0  0  0  0  0  0  0  0
  -27.8750   -7.2380  -30.0040 N   0  0  0  0  0  0  0  0  0  0  0  0
  -27.8180   -7.9480  -28.7720 C   0  0  0  0  0  0  0  0  0  0  0  0
  -26.8630   -8.9060  -28.4760 C   0  0  0  0  0  0  0  0  0  0  0  0
  -26.9420   -9.6230  -27.3280 C   0  0  0  0  0  0  0  0  0  0  0  0
  -27.9370   -9.4520  -26.4180 C   0  0  0  0  0  0  0  0  0  0  0  0
  -28.8460   -7.7660  -27.8420 C   0  0  0  0  0  0  0  0  0  0  0  0
  -28.9050   -8.5070  -26.6770 C   0  0  0  0  0  0  0  0  0  0  0  0
  -28.8050  -10.1750  -31.3090 C   0  0  0  0  0  0  0  0  0  0  0  0
  -29.8700   -9.9150  -30.7890 O   0  0  0  0  0  0  0  0  0  0  0  0
  -28.5650  -11.6210  -31.6490 C   0  0  0  0  0  0  0  0  0  0  0  0
  -27.9150   -4.2690  -32.1290 C   0  0  0  0  0  0  0  0  0  0  0  0
  1  2  2  0
  1  3  1  0
  1  6  1  0
  2  4  1  0
  3 13  1  0
  4 16  1  0
  4  5  2  0
  5  6  1  0
  6  7  1  0
 13 15  1  0
 13 14  2  0
  7  8  2  0
  7 11  1  0
  8  9  1  0
  9 10  2  0
 10 12  1  0
 11 12  2  0
M  END
>  <name>  (461) 
Car Nac Nd0 Car Nac Nac Car Car Car Car Car Car Cs2 .=O Cs3 Cs3

>  <indices>  (461) 
[0, 1, 2]

>  <tasks>  (461) 
probe_placing close_aromatic_ring close_aromatic_ring close_aromatic_ring ring_built build_to_Nac close_aromatic_ring close_aromatic_ring close_aromatic_ring close_aromatic_ring close_aromatic_ring build_to_Nd0 build_DB_to_Cs2 build_SB_to_Cs2

>  <prot_clashes>  (461) 
5

>  <NBS phar>  (461) 
0.34

>  <NBS_non-phar>  (461) 
0.5610377788543701

>  <NBS>  (461) 
0.9010377788543702

>  <source_stage>  (461) 
scored

>  <source_iter>  (461) 
13

>  <source_parent_mol>  (461) 
1

>  <source_scenario>  (461) 
1 2 3 1 4 7 5 0 0 0 6 0 1

>  <source_rank_in_scored_call>  (461) 
35

>  <source_current_task>  (461) 
no_task

>  <scenario>  (461) 
1 2 3 1 4 7 5 0 0 0 6 0

>  <protected_ring_attachments>  (461) 
1,0,5,6|0,5,6;3,1,0,2|1,0,2;3,4,5,6|4,5,6;4,5,0,2|5,0,2

>  <current_task>  (461) 
no_task

>  <rotatable_bond_torsions>  (461) 
1,0,2,12;0,2,12,14;0,5,6,7

$$$$

     RDKit          3D

 16 17  0  0  0  0  0  0  0  0999 V2000
  -27.9840   -7.5670  -31.7470 C   0  0  0  0  0  0  0  0  0  0  0  0
  -28.0630   -6.6020  -32.7070 N   0  0  0  0  0  0  0  0  0  0  0  0
  -27.8980   -9.0170  -32.1310 N   0  0  0  0  0  0  0  0  0  0  0  0
  -28.0930   -5.4010  -32.1040 C   0  0  0  0  0  0  0  0  0  0  0  0
  -28.0330   -5.6410  -30.7650 N   0  0  0  0  0  0  0  0  0  0  0  0
  -27.9650   -6.9420  -30.5540 N   0  0  0  0  0  0  0  0  0  0  0  0
  -27.8330   -7.6050  -29.3010 C   0  0  0  0  0  0  0  0  0  0  0  0
  -26.8420   -8.5310  -29.0180 C   0  0  0  0  0  0  0  0  0  0  0  0
  -26.8500   -9.2070  -27.8420 C   0  0  0  0  0  0  0  0  0  0  0  0
  -27.8040   -9.0250  -26.8920 C   0  0  0  0  0  0  0  0  0  0  0  0
  -28.8190   -7.4120  -28.3300 C   0  0  0  0  0  0  0  0  0  0  0  0
  -28.8060   -8.1110  -27.1380 C   0  0  0  0  0  0  0  0  0  0  0  0
  -28.8870   -9.9440  -31.7070 C   0  0  0  0  0  0  0  0  0  0  0  0
  -29.9310   -9.6890  -31.1450 O   0  0  0  0  0  0  0  0  0  0  0  0
  -28.6300  -11.3960  -32.0070 C   0  0  0  0  0  0  0  0  0  0  0  0
  -27.7200  -12.1380  -30.9740 C   0  0  0  0  0  0  0  0  0  0  0  0
  1  2  2  0
  1  3  1  0
  1  6  1  0
  2  4  1  0
  3 13  1  0
  4  5  2  0
  5  6  1  0
  6  7  1  0
 13 15  1  0
 13 14  2  0
  7  8  2  0
  7 11  1  0
  8  9  1  0
  9 10  2  0
 10 12  1  0
 11 12  2  0
 15 16  1  0
M  END
>  <name>  (462) 
Car Nac Nd0 Car Nac Nac Car Car Car Car Car Car Cs2 .=O Cs3 Cs3

>  <indices>  (462) 
[0, 1, 2]

>  <tasks>  (462) 
probe_placing close_aromatic_ring close_aromatic_ring close_aromatic_ring ring_built build_to_Nac close_aromatic_ring close_aromatic_ring close_aromatic_ring close_aromatic_ring close_aromatic_ring build_to_Nd0 build_DB_to_Cs2 build_SB_to_Cs2

>  <prot_clashes>  (462) 
5

>  <NBS phar>  (462) 
0.22000000000000003

>  <NBS_non-phar>  (462) 
0.6619463562965393

>  <NBS>  (462) 
0.8819463562965393

>  <source_stage>  (462) 
scored

>  <source_iter>  (462) 
13

>  <source_parent_mol>  (462) 
1

>  <source_scenario>  (462) 
1 2 3 1 4 7 5 0 0 0 6 0 1

>  <source_rank_in_scored_call>  (462) 
47

>  <source_current_task>  (462) 
no_task

>  <scenario>  (462) 
1 2 3 1 4 7 5 0 0 0 6 0

>  <protected_ring_attachments>  (462) 
1,0,5,6|0,5,6;3,1,0,2|1,0,2;3,4,5,6|4,5,6;4,5,0,2|5,0,2

>  <current_task>  (462) 
no_task

>  <rotatable_bond_torsions>  (462) 
1,0,2,12;0,2,12,14;0,5,6,7

$$$$

     RDKit          3D

 16 17  0  0  0  0  0  0  0  0999 V2000
  -27.9680   -7.5580  -31.7220 C   0  0  0  0  0  0  0  0  0  0  0  0
  -28.0640   -6.6260  -32.7120 N   0  0  0  0  0  0  0  0  0  0  0  0
  -27.8430   -9.0170  -32.0600 N   0  0  0  0  0  0  0  0  0  0  0  0
  -28.1280   -5.4080  -32.1480 C   0  0  0  0  0  0  0  0  0  0  0  0
  -28.0740   -5.6050  -30.8010 N   0  0  0  0  0  0  0  0  0  0  0  0
  -27.9750   -6.8970  -30.5490 N   0  0  0  0  0  0  0  0  0  0  0  0
  -27.8360   -7.5180  -29.2760 C   0  0  0  0  0  0  0  0  0  0  0  0
  -26.8260   -8.4090  -28.9570 C   0  0  0  0  0  0  0  0  0  0  0  0
  -26.8270   -9.0480  -27.7610 C   0  0  0  0  0  0  0  0  0  0  0  0
  -27.7920   -8.8610  -26.8230 C   0  0  0  0  0  0  0  0  0  0  0  0
  -28.8350   -7.3190  -28.3180 C   0  0  0  0  0  0  0  0  0  0  0  0
  -28.8140   -7.9810  -27.1050 C   0  0  0  0  0  0  0  0  0  0  0  0
  -28.8120   -9.9550  -31.6150 C   0  0  0  0  0  0  0  0  0  0  0  0
  -29.8670   -9.7090  -31.0690 O   0  0  0  0  0  0  0  0  0  0  0  0
  -28.5170  -11.4090  -31.8680 C   0  0  0  0  0  0  0  0  0  0  0  0
  -27.7470   -9.5990  -25.5080 C   0  0  0  0  0  0  0  0  0  0  0  0
  1  2  2  0
  1  3  1  0
  1  6  1  0
  2  4  1  0
  3 13  1  0
  4  5  2  0
  5  6  1  0
  6  7  1  0
 13 15  1  0
 13 14  2  0
  7  8  2  0
  7 11  1  0
  8  9  1  0
  9 10  2  0
 10 12  1  0
 10 16  1  0
 11 12  2  0
M  END
>  <name>  (463) 
Car Nac Nd0 Car Nac Nac Car Car Car Car Car Car Cs2 .=O Cs3 Cs3

>  <indices>  (463) 
[0, 1, 2]

>  <tasks>  (463) 
probe_placing close_aromatic_ring close_aromatic_ring close_aromatic_ring ring_built build_to_Nac close_aromatic_ring close_aromatic_ring close_aromatic_ring close_aromatic_ring close_aromatic_ring build_to_Nd0 build_DB_to_Cs2 build_SB_to_Cs2

>  <prot_clashes>  (463) 
4

>  <NBS phar>  (463) 
0.22000000000000003

>  <NBS_non-phar>  (463) 
0.6437589526176453

>  <NBS>  (463) 
0.8637589526176452

>  <source_stage>  (463) 
scored

>  <source_iter>  (463) 
13

>  <source_parent_mol>  (463) 
1

>  <source_scenario>  (463) 
1 2 3 1 4 7 5 0 0 0 6 0 1

>  <source_rank_in_scored_call>  (463) 
62

>  <source_current_task>  (463) 
no_task

>  <scenario>  (463) 
1 2 3 1 4 7 5 0 0 0 6 0

>  <protected_ring_attachments>  (463) 
1,0,5,6|0,5,6;3,1,0,2|1,0,2;3,4,5,6|4,5,6;4,5,0,2|5,0,2

>  <current_task>  (463) 
no_task

>  <rotatable_bond_torsions>  (463) 
1,0,2,12;0,2,12,14;0,5,6,7

$$$$

     RDKit          3D

 16 17  0  0  0  0  0  0  0  0999 V2000
  -27.8740   -7.7470  -31.4820 C   0  0  0  0  0  0  0  0  0  0  0  0
  -28.0600   -6.8680  -32.5070 N   0  0  0  0  0  0  0  0  0  0  0  0
  -27.5560   -9.1890  -31.7640 N   0  0  0  0  0  0  0  0  0  0  0  0
  -28.2930   -5.6500  -31.9880 C   0  0  0  0  0  0  0  0  0  0  0  0
  -28.2500   -5.7940  -30.6350 N   0  0  0  0  0  0  0  0  0  0  0  0
  -27.9960   -7.0530  -30.3340 N   0  0  0  0  0  0  0  0  0  0  0  0
  -27.8140   -7.6100  -29.0360 C   0  0  0  0  0  0  0  0  0  0  0  0
  -26.7080   -8.3540  -28.6630 C   0  0  0  0  0  0  0  0  0  0  0  0
  -26.6600   -8.9480  -27.4440 C   0  0  0  0  0  0  0  0  0  0  0  0
  -27.6670   -8.8550  -26.5360 C   0  0  0  0  0  0  0  0  0  0  0  0
  -28.8550   -7.5080  -28.1090 C   0  0  0  0  0  0  0  0  0  0  0  0
  -28.7840   -8.1210  -26.8720 C   0  0  0  0  0  0  0  0  0  0  0  0
  -28.4110  -10.2270  -31.3070 C   0  0  0  0  0  0  0  0  0  0  0  0
  -29.5030  -10.1000  -30.7950 O   0  0  0  0  0  0  0  0  0  0  0  0
  -27.9270  -11.6390  -31.5010 C   0  0  0  0  0  0  0  0  0  0  0  0
  -28.8150  -12.4550  -32.4180 C   0  0  0  0  0  0  0  0  0  0  0  0
  1  2  2  0
  1  3  1  0
  1  6  1  0
  2  4  1  0
  3 13  1  0
  4  5  2  0
  5  6  1  0
  6  7  1  0
 13 15  1  0
 13 14  2  0
  7  8  2  0
  7 11  1  0
  8  9  1  0
  9 10  2  0
 10 12  1  0
 11 12  2  0
 15 16  1  0
M  END
>  <name>  (464) 
Car Nac Nd0 Car Nac Nac Car Car Car Car Car Car Cs2 .=O Cs3 Cs3

>  <indices>  (464) 
[0, 1, 2]

>  <tasks>  (464) 
probe_placing close_aromatic_ring close_aromatic_ring close_aromatic_ring ring_built build_to_Nac close_aromatic_ring close_aromatic_ring close_aromatic_ring close_aromatic_ring close_aromatic_ring build_to_Nd0 build_DB_to_Cs2 build_SB_to_Cs2

>  <prot_clashes>  (464) 
6

>  <NBS phar>  (464) 
0.24000000000000005

>  <NBS_non-phar>  (464) 
0.6085512638092041

>  <NBS>  (464) 
0.8485512638092041

>  <source_stage>  (464) 
scored

>  <source_iter>  (464) 
13

>  <source_parent_mol>  (464) 
1

>  <source_scenario>  (464) 
1 2 3 1 4 7 5 0 0 0 6 0 1

>  <source_rank_in_scored_call>  (464) 
68

>  <source_current_task>  (464) 
no_task

>  <scenario>  (464) 
1 2 3 1 4 7 5 0 0 0 6 0

>  <protected_ring_attachments>  (464) 
1,0,5,6|0,5,6;3,1,0,2|1,0,2;3,4,5,6|4,5,6;4,5,0,2|5,0,2

>  <current_task>  (464) 
no_task

>  <rotatable_bond_torsions>  (464) 
1,0,2,12;0,2,12,14;0,5,6,7

$$$$

     RDKit          3D

 16 17  0  0  0  0  0  0  0  0999 V2000
  -27.9450   -7.5630  -31.7040 C   0  0  0  0  0  0  0  0  0  0  0  0
  -28.0540   -6.6090  -32.6720 N   0  0  0  0  0  0  0  0  0  0  0  0
  -27.7990   -9.0110  -32.0760 N   0  0  0  0  0  0  0  0  0  0  0  0
  -28.1360   -5.4060  -32.0790 C   0  0  0  0  0  0  0  0  0  0  0  0
  -28.0780   -5.6330  -30.7380 N   0  0  0  0  0  0  0  0  0  0  0  0
  -27.9610   -6.9280  -30.5160 N   0  0  0  0  0  0  0  0  0  0  0  0
  -27.8130   -7.5770  -29.2570 C   0  0  0  0  0  0  0  0  0  0  0  0
  -26.7890   -8.4600  -28.9590 C   0  0  0  0  0  0  0  0  0  0  0  0
  -26.7800   -9.1270  -27.7780 C   0  0  0  0  0  0  0  0  0  0  0  0
  -27.7480   -8.9760  -26.8370 C   0  0  0  0  0  0  0  0  0  0  0  0
  -28.8140   -7.4150  -28.2950 C   0  0  0  0  0  0  0  0  0  0  0  0
  -28.7830   -8.1040  -27.0980 C   0  0  0  0  0  0  0  0  0  0  0  0
  -28.7540   -9.9730  -31.6520 C   0  0  0  0  0  0  0  0  0  0  0  0
  -29.8120   -9.7550  -31.1010 O   0  0  0  0  0  0  0  0  0  0  0  0
  -28.4380  -11.4160  -31.9390 C   0  0  0  0  0  0  0  0  0  0  0  0
  -28.4910  -12.3090  -30.7140 C   0  0  0  0  0  0  0  0  0  0  0  0
  1  2  2  0
  1  3  1  0
  1  6  1  0
  2  4  1  0
  3 13  1  0
  4  5  2  0
  5  6  1  0
  6  7  1  0
 13 15  1  0
 13 14  2  0
  7  8  2  0
  7 11  1  0
  8  9  1  0
  9 10  2  0
 10 12  1  0
 11 12  2  0
 15 16  1  0
M  END
>  <name>  (465) 
Car Nac Nd0 Car Nac Nac Car Car Car Car Car Car Cs2 .=O Cs3 Cs3

>  <indices>  (465) 
[0, 1, 2]

>  <tasks>  (465) 
probe_placing close_aromatic_ring close_aromatic_ring close_aromatic_ring ring_built build_to_Nac close_aromatic_ring close_aromatic_ring close_aromatic_ring close_aromatic_ring close_aromatic_ring build_to_Nd0 build_DB_to_Cs2 build_SB_to_Cs2

>  <prot_clashes>  (465) 
4

>  <NBS phar>  (465) 
0.24000000000000005

>  <NBS_non-phar>  (465) 
0.6055455207824707

>  <NBS>  (465) 
0.8455455207824707

>  <source_stage>  (465) 
scored

>  <source_iter>  (465) 
13

>  <source_parent_mol>  (465) 
1

>  <source_scenario>  (465) 
1 2 3 1 4 7 5 0 0 0 6 0 1

>  <source_rank_in_scored_call>  (465) 
71

>  <source_current_task>  (465) 
no_task

>  <scenario>  (465) 
1 2 3 1 4 7 5 0 0 0 6 0

>  <protected_ring_attachments>  (465) 
1,0,5,6|0,5,6;3,1,0,2|1,0,2;3,4,5,6|4,5,6;4,5,0,2|5,0,2

>  <current_task>  (465) 
no_task

>  <rotatable_bond_torsions>  (465) 
1,0,2,12;0,2,12,14;0,5,6,7

$$$$

     RDKit          3D

 16 17  0  0  0  0  0  0  0  0999 V2000
  -27.9400   -7.5850  -31.6920 C   0  0  0  0  0  0  0  0  0  0  0  0
  -28.0460   -6.6340  -32.6640 N   0  0  0  0  0  0  0  0  0  0  0  0
  -27.7970   -9.0350  -32.0590 N   0  0  0  0  0  0  0  0  0  0  0  0
  -28.1260   -5.4290  -32.0750 C   0  0  0  0  0  0  0  0  0  0  0  0
  -28.0700   -5.6520  -30.7330 N   0  0  0  0  0  0  0  0  0  0  0  0
  -27.9560   -6.9470  -30.5060 N   0  0  0  0  0  0  0  0  0  0  0  0
  -27.8110   -7.5920  -29.2450 C   0  0  0  0  0  0  0  0  0  0  0  0
  -26.7900   -8.4760  -28.9430 C   0  0  0  0  0  0  0  0  0  0  0  0
  -26.7840   -9.1390  -27.7600 C   0  0  0  0  0  0  0  0  0  0  0  0
  -27.7530   -8.9830  -26.8200 C   0  0  0  0  0  0  0  0  0  0  0  0
  -28.8130   -7.4240  -28.2850 C   0  0  0  0  0  0  0  0  0  0  0  0
  -28.7850   -8.1100  -27.0850 C   0  0  0  0  0  0  0  0  0  0  0  0
  -28.7540   -9.9940  -31.6340 C   0  0  0  0  0  0  0  0  0  0  0  0
  -29.8130   -9.7720  -31.0850 O   0  0  0  0  0  0  0  0  0  0  0  0
  -28.4410  -11.4380  -31.9150 C   0  0  0  0  0  0  0  0  0  0  0  0
  -28.9300  -12.3040  -30.7250 C   0  0  0  0  0  0  0  0  0  0  0  0
  1  2  2  0
  1  3  1  0
  1  6  1  0
  2  4  1  0
  3 13  1  0
  4  5  2  0
  5  6  1  0
  6  7  1  0
 13 15  1  0
 13 14  2  0
  7  8  2  0
  7 11  1  0
  8  9  1  0
  9 10  2  0
 10 12  1  0
 11 12  2  0
 15 16  1  0
M  END
>  <name>  (466) 
Car Nac Nd0 Car Nac Nac Car Car Car Car Car Car Cs2 .=O Cs3 Cs3

>  <indices>  (466) 
[0, 1, 2]

>  <tasks>  (466) 
probe_placing close_aromatic_ring close_aromatic_ring close_aromatic_ring ring_built build_to_Nac close_aromatic_ring close_aromatic_ring close_aromatic_ring close_aromatic_ring close_aromatic_ring build_to_Nd0 build_DB_to_Cs2 build_SB_to_Cs2

>  <prot_clashes>  (466) 
3

>  <NBS phar>  (466) 
0.2

>  <NBS_non-phar>  (466) 
0.639850914478302

>  <NBS>  (466) 
0.839850914478302

>  <source_stage>  (466) 
scored

>  <source_iter>  (466) 
13

>  <source_parent_mol>  (466) 
1

>  <source_scenario>  (466) 
1 2 3 1 4 7 5 0 0 0 6 0 1

>  <source_rank_in_scored_call>  (466) 
78

>  <source_current_task>  (466) 
no_task

>  <scenario>  (466) 
1 2 3 1 4 7 5 0 0 0 6 0

>  <protected_ring_attachments>  (466) 
1,0,5,6|0,5,6;3,1,0,2|1,0,2;3,4,5,6|4,5,6;4,5,0,2|5,0,2

>  <current_task>  (466) 
no_task

>  <rotatable_bond_torsions>  (466) 
1,0,2,12;0,2,12,14;0,5,6,7

$$$$

     RDKit          3D

 16 17  0  0  0  0  0  0  0  0999 V2000
  -27.8950   -7.6280  -31.5120 C   0  0  0  0  0  0  0  0  0  0  0  0
  -28.0990   -6.7240  -32.5120 N   0  0  0  0  0  0  0  0  0  0  0  0
  -27.5820   -9.0620  -31.8350 N   0  0  0  0  0  0  0  0  0  0  0  0
  -28.3250   -5.5200  -31.9590 C   0  0  0  0  0  0  0  0  0  0  0  0
  -28.2590   -5.6960  -30.6110 N   0  0  0  0  0  0  0  0  0  0  0  0
  -27.9980   -6.9630  -30.3450 N   0  0  0  0  0  0  0  0  0  0  0  0
  -27.7940   -7.5500  -29.0650 C   0  0  0  0  0  0  0  0  0  0  0  0
  -26.6810   -8.3020  -28.7280 C   0  0  0  0  0  0  0  0  0  0  0  0
  -26.6120   -8.9260  -27.5260 C   0  0  0  0  0  0  0  0  0  0  0  0
  -27.6030   -8.8560  -26.5990 C   0  0  0  0  0  0  0  0  0  0  0  0
  -28.8200   -7.4730  -28.1180 C   0  0  0  0  0  0  0  0  0  0  0  0
  -28.7270   -8.1160  -26.8980 C   0  0  0  0  0  0  0  0  0  0  0  0
  -28.4270  -10.1120  -31.3890 C   0  0  0  0  0  0  0  0  0  0  0  0
  -29.5110   -9.9980  -30.8550 O   0  0  0  0  0  0  0  0  0  0  0  0
  -27.9460  -11.5180  -31.6250 C   0  0  0  0  0  0  0  0  0  0  0  0
  -29.0880  -12.4190  -31.8680 C   0  0  0  0  0  0  0  0  0  0  0  0
  1  2  2  0
  1  3  1  0
  1  6  1  0
  2  4  1  0
  3 13  1  0
  4  5  2  0
  5  6  1  0
  6  7  1  0
 13 15  1  0
 13 14  2  0
  7  8  2  0
  7 11  1  0
  8  9  1  0
  9 10  2  0
 10 12  1  0
 11 12  2  0
 15 16  1  0
M  END
>  <name>  (467) 
Car Nac Nd0 Car Nac Nac Car Car Car Car Car Car Cs2 .=O Cs3 Cs3

>  <indices>  (467) 
[0, 1, 2]

>  <tasks>  (467) 
probe_placing close_aromatic_ring close_aromatic_ring close_aromatic_ring ring_built build_to_Nac close_aromatic_ring close_aromatic_ring close_aromatic_ring close_aromatic_ring close_aromatic_ring build_to_Nd0 build_DB_to_Cs2 build_SB_to_Cs2

>  <prot_clashes>  (467) 
7

>  <NBS phar>  (467) 
0.24000000000000005

>  <NBS_non-phar>  (467) 
0.5687065124511719

>  <NBS>  (467) 
0.8087065124511719

>  <source_stage>  (467) 
scored

>  <source_iter>  (467) 
13

>  <source_parent_mol>  (467) 
1

>  <source_scenario>  (467) 
1 2 3 1 4 7 5 0 0 0 6 0 1

>  <source_rank_in_scored_call>  (467) 
94

>  <source_current_task>  (467) 
no_task

>  <scenario>  (467) 
1 2 3 1 4 7 5 0 0 0 6 0

>  <protected_ring_attachments>  (467) 
1,0,5,6|0,5,6;3,1,0,2|1,0,2;3,4,5,6|4,5,6;4,5,0,2|5,0,2

>  <current_task>  (467) 
no_task

>  <rotatable_bond_torsions>  (467) 
1,0,2,12;0,2,12,14;0,5,6,7

$$$$

     RDKit          3D

 16 17  0  0  0  0  0  0  0  0999 V2000
  -27.9480   -7.5180  -31.8640 C   0  0  0  0  0  0  0  0  0  0  0  0
  -28.0610   -6.6240  -32.8870 N   0  0  0  0  0  0  0  0  0  0  0  0
  -27.9730   -8.9950  -32.1370 N   0  0  0  0  0  0  0  0  0  0  0  0
  -27.9750   -5.3820  -32.3810 C   0  0  0  0  0  0  0  0  0  0  0  0
  -27.8100   -5.5240  -31.0370 N   0  0  0  0  0  0  0  0  0  0  0  0
  -27.7920   -6.8080  -30.7300 N   0  0  0  0  0  0  0  0  0  0  0  0
  -27.5850   -7.3830  -29.4440 C   0  0  0  0  0  0  0  0  0  0  0  0
  -26.6230   -8.3410  -29.1720 C   0  0  0  0  0  0  0  0  0  0  0  0
  -26.5630   -8.9260  -27.9500 C   0  0  0  0  0  0  0  0  0  0  0  0
  -27.4190   -8.6170  -26.9400 C   0  0  0  0  0  0  0  0  0  0  0  0
  -28.4700   -7.0590  -28.4120 C   0  0  0  0  0  0  0  0  0  0  0  0
  -28.3890   -7.6670  -27.1730 C   0  0  0  0  0  0  0  0  0  0  0  0
  -28.9680   -9.8280  -31.5590 C   0  0  0  0  0  0  0  0  0  0  0  0
  -29.9440   -9.4700  -30.9340 O   0  0  0  0  0  0  0  0  0  0  0  0
  -28.8150  -11.3110  -31.7640 C   0  0  0  0  0  0  0  0  0  0  0  0
  -29.5400   -6.0230  -28.6550 C   0  0  0  0  0  0  0  0  0  0  0  0
  1  2  2  0
  1  3  1  0
  1  6  1  0
  2  4  1  0
  3 13  1  0
  4  5  2  0
  5  6  1  0
  6  7  1  0
 13 15  1  0
 13 14  2  0
  7  8  2  0
  7 11  1  0
  8  9  1  0
  9 10  2  0
 10 12  1  0
 11 16  1  0
 11 12  2  0
M  END
>  <name>  (468) 
Car Nac Nd0 Car Nac Nac Car Car Car Car Car Car Cs2 .=O Cs3 Cs3

>  <indices>  (468) 
[0, 1, 2]

>  <tasks>  (468) 
probe_placing close_aromatic_ring close_aromatic_ring close_aromatic_ring ring_built build_to_Nac close_aromatic_ring close_aromatic_ring close_aromatic_ring close_aromatic_ring close_aromatic_ring build_to_Nd0 build_DB_to_Cs2 build_SB_to_Cs2

>  <prot_clashes>  (468) 
8

>  <NBS phar>  (468) 
0.25999999999999995

>  <NBS_non-phar>  (468) 
0.47985759377479553

>  <NBS>  (468) 
0.7398575937747955

>  <source_stage>  (468) 
scored

>  <source_iter>  (468) 
13

>  <source_parent_mol>  (468) 
1

>  <source_scenario>  (468) 
1 2 3 1 4 7 5 0 0 0 6 0 1

>  <source_rank_in_scored_call>  (468) 
121

>  <source_current_task>  (468) 
no_task

>  <scenario>  (468) 
1 2 3 1 4 7 5 0 0 0 6 0

>  <protected_ring_attachments>  (468) 
1,0,5,6|0,5,6;3,1,0,2|1,0,2;3,4,5,6|4,5,6;4,5,0,2|5,0,2

>  <current_task>  (468) 
no_task

>  <rotatable_bond_torsions>  (468) 
1,0,2,12;0,2,12,14;0,5,6,7

$$$$

     RDKit          3D

 15 16  0  0  0  0  0  0  0  0999 V2000
  -28.1740   -8.6800  -31.1350 C   0  0  0  0  0  0  0  0  0  0  0  0
  -28.2870   -7.7420  -32.1180 N   0  0  0  0  0  0  0  0  0  0  0  0
  -27.7340  -10.0770  -31.4670 N   0  0  0  0  0  0  0  0  0  0  0  0
  -28.6610   -6.5800  -31.5530 C   0  0  0  0  0  0  0  0  0  0  0  0
  -28.7750   -6.8130  -30.2180 N   0  0  0  0  0  0  0  0  0  0  0  0
  -28.4820   -8.0780  -29.9710 N   0  0  0  0  0  0  0  0  0  0  0  0
  -28.4300   -8.7350  -28.7060 C   0  0  0  0  0  0  0  0  0  0  0  0
  -27.2570   -8.7620  -27.9590 C   0  0  0  0  0  0  0  0  0  0  0  0
  -27.2080   -9.3820  -26.7240 C   0  0  0  0  0  0  0  0  0  0  0  0
  -28.3490   -9.9830  -26.2350 C   0  0  0  0  0  0  0  0  0  0  0  0
  -29.5630   -9.3450  -28.1930 C   0  0  0  0  0  0  0  0  0  0  0  0
  -29.5310   -9.9730  -26.9560 C   0  0  0  0  0  0  0  0  0  0  0  0
  -28.6610  -10.9380  -31.8350 C   0  0  0  0  0  0  0  0  0  0  0  0
  -29.8570  -10.8240  -32.1100 O   0  0  0  0  0  0  0  0  0  0  0  0
  -28.1980  -12.4200  -31.9960 C   0  0  0  0  0  0  0  0  0  0  0  0
  1  2  2  0
  1  3  1  0
  1  6  1  0
  2  4  1  0
  3 13  1  0
  4  5  2  0
  5  6  1  0
  6  7  1  0
 13 14  2  0
 13 15  1  0
  7 11  1  0
  7  8  2  0
  8  9  1  0
  9 10  2  0
 10 12  1  0
 11 12  2  0
M  END
>  <name>  (469) 
Car Nac Nd0 Car Nac Nac Car Car Car Car Car Car Cs2 .=O Cs3

>  <indices>  (469) 
[0, 1, 2]

>  <tasks>  (469) 
probe_placing close_aromatic_ring close_aromatic_ring close_aromatic_ring ring_built build_to_Nac close_aromatic_ring close_aromatic_ring close_aromatic_ring close_aromatic_ring close_aromatic_ring build_to_Nd0 build_DB_to_Cs2

>  <prot_clashes>  (469) 
2

>  <NBS phar>  (469) 
0.13999999999999999

>  <NBS_non-phar>  (469) 
0.5330159823099773

>  <NBS>  (469) 
0.6730159823099773

>  <source_stage>  (469) 
scored

>  <source_iter>  (469) 
12

>  <source_parent_mol>  (469) 
0

>  <source_scenario>  (469) 
1 2 3 1 4 6 2 1 0 0 1 0

>  <source_rank_in_scored_call>  (469) 
5

>  <source_current_task>  (469) 
build_SB_to_Cs2

>  <scenario>  (469) 
1 2 3 1 4 6 2 1 0 0 1

>  <protected_ring_attachments>  (469) 
1,0,5,6|0,5,6;3,1,0,2|1,0,2;3,4,5,6|4,5,6;4,5,0,2|5,0,2

>  <current_task>  (469) 
no_task

>  <rotatable_bond_torsions>  (469) 
1,0,2,12;0,2,12,13;0,5,6,7

$$$$

     RDKit          3D

 16 17  0  0  0  0  0  0  0  0999 V2000
  -28.2490   -8.8060  -31.1530 C   0  0  0  0  0  0  0  0  0  0  0  0
  -28.3470   -7.9480  -32.2080 N   0  0  0  0  0  0  0  0  0  0  0  0
  -28.0160  -10.2710  -31.3870 N   0  0  0  0  0  0  0  0  0  0  0  0
  -28.5200   -6.7030  -31.7270 C   0  0  0  0  0  0  0  0  0  0  0  0
  -28.5260   -6.8060  -30.3710 N   0  0  0  0  0  0  0  0  0  0  0  0
  -28.3640   -8.0730  -30.0300 N   0  0  0  0  0  0  0  0  0  0  0  0
  -28.2640   -8.6220  -28.7170 C   0  0  0  0  0  0  0  0  0  0  0  0
  -27.0340   -8.7360  -28.0790 C   0  0  0  0  0  0  0  0  0  0  0  0
  -26.9360   -9.2510  -26.7990 C   0  0  0  0  0  0  0  0  0  0  0  0
  -28.0850   -9.6560  -26.1550 C   0  0  0  0  0  0  0  0  0  0  0  0
  -29.4050   -9.0350  -28.0490 C   0  0  0  0  0  0  0  0  0  0  0  0
  -29.3240   -9.5550  -26.7650 C   0  0  0  0  0  0  0  0  0  0  0  0
  -29.0720  -11.0330  -31.5860 C   0  0  0  0  0  0  0  0  0  0  0  0
  -30.2670  -10.7900  -31.7630 O   0  0  0  0  0  0  0  0  0  0  0  0
  -28.8090  -12.5710  -31.6440 C   0  0  0  0  0  0  0  0  0  0  0  0
  -27.3390  -12.8580  -31.4500 C   0  0  0  0  0  0  0  0  0  0  0  0
  1  2  2  0
  1  3  1  0
  1  6  1  0
  2  4  1  0
  3 13  1  0
  4  5  2  0
  5  6  1  0
  6  7  1  0
 13 14  2  0
 13 15  1  0
  7  8  2  0
  7 11  1  0
  8  9  1  0
  9 10  2  0
 10 12  1  0
 11 12  2  0
 15 16  1  0
M  END
>  <name>  (470) 
Car Nac Nd0 Car Nac Nac Car Car Car Car Car Car Cs2 .=O Cs3 Cs3

>  <indices>  (470) 
[0, 1, 2]

>  <tasks>  (470) 
probe_placing close_aromatic_ring close_aromatic_ring close_aromatic_ring ring_built build_to_Nac close_aromatic_ring close_aromatic_ring close_aromatic_ring close_aromatic_ring close_aromatic_ring build_to_Nd0 build_DB_to_Cs2 build_SB_to_Cs2

>  <prot_clashes>  (470) 
3

>  <NBS phar>  (470) 
0.24

>  <NBS_non-phar>  (470) 
0.5609301328659058

>  <NBS>  (470) 
0.8009301328659058

>  <source_stage>  (470) 
scored

>  <source_iter>  (470) 
13

>  <source_parent_mol>  (470) 
4

>  <source_scenario>  (470) 
1 2 3 1 4 6 2 1 0 0 1 0 4

>  <source_rank_in_scored_call>  (470) 
5

>  <source_current_task>  (470) 
no_task

>  <scenario>  (470) 
1 2 3 1 4 6 2 1 0 0 1 0

>  <protected_ring_attachments>  (470) 
1,0,5,6|0,5,6;3,1,0,2|1,0,2;3,4,5,6|4,5,6;4,5,0,2|5,0,2

>  <current_task>  (470) 
no_task

>  <rotatable_bond_torsions>  (470) 
1,0,2,12;0,2,12,14;0,5,6,7

$$$$

     RDKit          3D

 16 17  0  0  0  0  0  0  0  0999 V2000
  -28.1890   -8.6730  -31.1050 C   0  0  0  0  0  0  0  0  0  0  0  0
  -28.4170   -7.8170  -32.1420 N   0  0  0  0  0  0  0  0  0  0  0  0
  -27.6790  -10.0610  -31.3650 N   0  0  0  0  0  0  0  0  0  0  0  0
  -28.8330   -6.6420  -31.6370 C   0  0  0  0  0  0  0  0  0  0  0  0
  -28.8580   -6.7840  -30.2850 N   0  0  0  0  0  0  0  0  0  0  0  0
  -28.4710   -8.0070  -29.9690 N   0  0  0  0  0  0  0  0  0  0  0  0
  -28.3070   -8.5660  -28.6670 C   0  0  0  0  0  0  0  0  0  0  0  0
  -27.0950   -8.4680  -27.9910 C   0  0  0  0  0  0  0  0  0  0  0  0
  -26.9380   -8.9920  -26.7210 C   0  0  0  0  0  0  0  0  0  0  0  0
  -28.0090   -9.6240  -26.1240 C   0  0  0  0  0  0  0  0  0  0  0  0
  -29.3680   -9.2040  -28.0460 C   0  0  0  0  0  0  0  0  0  0  0  0
  -29.2280   -9.7380  -26.7730 C   0  0  0  0  0  0  0  0  0  0  0  0
  -28.5680  -11.0010  -31.6160 C   0  0  0  0  0  0  0  0  0  0  0  0
  -29.7820  -10.9800  -31.8270 O   0  0  0  0  0  0  0  0  0  0  0  0
  -28.0200  -12.4600  -31.7020 C   0  0  0  0  0  0  0  0  0  0  0  0
  -28.8210  -13.2410  -32.6850 C   0  0  0  0  0  0  0  0  0  0  0  0
  1  2  2  0
  1  3  1  0
  1  6  1  0
  2  4  1  0
  3 13  1  0
  4  5  2  0
  5  6  1  0
  6  7  1  0
 13 14  2  0
 13 15  1  0
  7 11  1  0
  7  8  2  0
  8  9  1  0
  9 10  2  0
 10 12  1  0
 11 12  2  0
 15 16  1  0
M  END
>  <name>  (471) 
Car Nac Nd0 Car Nac Nac Car Car Car Car Car Car Cs2 .=O Cs3 Cs3

>  <indices>  (471) 
[0, 1, 2]

>  <tasks>  (471) 
probe_placing close_aromatic_ring close_aromatic_ring close_aromatic_ring ring_built build_to_Nac close_aromatic_ring close_aromatic_ring close_aromatic_ring close_aromatic_ring close_aromatic_ring build_to_Nd0 build_DB_to_Cs2 build_SB_to_Cs2

>  <prot_clashes>  (471) 
8

>  <NBS phar>  (471) 
0.24000000000000005

>  <NBS_non-phar>  (471) 
0.5587245225906372

>  <NBS>  (471) 
0.7987245225906372

>  <source_stage>  (471) 
scored

>  <source_iter>  (471) 
13

>  <source_parent_mol>  (471) 
4

>  <source_scenario>  (471) 
1 2 3 1 4 6 2 1 0 0 1 0 4

>  <source_rank_in_scored_call>  (471) 
7

>  <source_current_task>  (471) 
no_task

>  <scenario>  (471) 
1 2 3 1 4 6 2 1 0 0 1 0

>  <protected_ring_attachments>  (471) 
1,0,5,6|0,5,6;3,1,0,2|1,0,2;3,4,5,6|4,5,6;4,5,0,2|5,0,2

>  <current_task>  (471) 
no_task

>  <rotatable_bond_torsions>  (471) 
1,0,2,12;0,2,12,14;0,5,6,7

$$$$

     RDKit          3D

 16 17  0  0  0  0  0  0  0  0999 V2000
  -28.2270   -8.6760  -31.1210 C   0  0  0  0  0  0  0  0  0  0  0  0
  -28.4270   -7.8290  -32.1710 N   0  0  0  0  0  0  0  0  0  0  0  0
  -27.7880  -10.0910  -31.3620 N   0  0  0  0  0  0  0  0  0  0  0  0
  -28.7800   -6.6260  -31.6830 C   0  0  0  0  0  0  0  0  0  0  0  0
  -28.7940   -6.7420  -30.3280 N   0  0  0  0  0  0  0  0  0  0  0  0
  -28.4610   -7.9770  -29.9940 N   0  0  0  0  0  0  0  0  0  0  0  0
  -28.3070   -8.5200  -28.6840 C   0  0  0  0  0  0  0  0  0  0  0  0
  -27.0820   -8.4670  -28.0260 C   0  0  0  0  0  0  0  0  0  0  0  0
  -26.9340   -8.9760  -26.7480 C   0  0  0  0  0  0  0  0  0  0  0  0
  -28.0260   -9.5440  -26.1270 C   0  0  0  0  0  0  0  0  0  0  0  0
  -29.3890   -9.0950  -28.0380 C   0  0  0  0  0  0  0  0  0  0  0  0
  -29.2560   -9.6110  -26.7570 C   0  0  0  0  0  0  0  0  0  0  0  0
  -28.7230  -10.9920  -31.5840 C   0  0  0  0  0  0  0  0  0  0  0  0
  -29.9380  -10.9160  -31.7800 O   0  0  0  0  0  0  0  0  0  0  0  0
  -28.2470  -12.4770  -31.6490 C   0  0  0  0  0  0  0  0  0  0  0  0
  -28.4390  -13.1160  -32.9920 C   0  0  0  0  0  0  0  0  0  0  0  0
  1  2  2  0
  1  3  1  0
  1  6  1  0
  2  4  1  0
  3 13  1  0
  4  5  2  0
  5  6  1  0
  6  7  1  0
 13 14  2  0
 13 15  1  0
  7 11  1  0
  7  8  2  0
  8  9  1  0
  9 10  2  0
 10 12  1  0
 11 12  2  0
 15 16  1  0
M  END
>  <name>  (472) 
Car Nac Nd0 Car Nac Nac Car Car Car Car Car Car Cs2 .=O Cs3 Cs3

>  <indices>  (472) 
[0, 1, 2]

>  <tasks>  (472) 
probe_placing close_aromatic_ring close_aromatic_ring close_aromatic_ring ring_built build_to_Nac close_aromatic_ring close_aromatic_ring close_aromatic_ring close_aromatic_ring close_aromatic_ring build_to_Nd0 build_DB_to_Cs2 build_SB_to_Cs2

>  <prot_clashes>  (472) 
5

>  <NBS phar>  (472) 
0.26

>  <NBS_non-phar>  (472) 
0.5266577005386353

>  <NBS>  (472) 
0.7866577005386353

>  <source_stage>  (472) 
scored

>  <source_iter>  (472) 
13

>  <source_parent_mol>  (472) 
4

>  <source_scenario>  (472) 
1 2 3 1 4 6 2 1 0 0 1 0 4

>  <source_rank_in_scored_call>  (472) 
13

>  <source_current_task>  (472) 
no_task

>  <scenario>  (472) 
1 2 3 1 4 6 2 1 0 0 1 0

>  <protected_ring_attachments>  (472) 
1,0,5,6|0,5,6;3,1,0,2|1,0,2;3,4,5,6|4,5,6;4,5,0,2|5,0,2

>  <current_task>  (472) 
no_task

>  <rotatable_bond_torsions>  (472) 
1,0,2,12;0,2,12,14;0,5,6,7

$$$$

     RDKit          3D

 16 17  0  0  0  0  0  0  0  0999 V2000
  -28.1610   -8.6700  -31.1090 C   0  0  0  0  0  0  0  0  0  0  0  0
  -28.3280   -7.7740  -32.1230 N   0  0  0  0  0  0  0  0  0  0  0  0
  -27.5960  -10.0330  -31.3880 N   0  0  0  0  0  0  0  0  0  0  0  0
  -28.8130   -6.6320  -31.6030 C   0  0  0  0  0  0  0  0  0  0  0  0
  -28.9410   -6.8360  -30.2640 N   0  0  0  0  0  0  0  0  0  0  0  0
  -28.5480   -8.0640  -29.9720 N   0  0  0  0  0  0  0  0  0  0  0  0
  -28.4730   -8.6780  -28.6860 C   0  0  0  0  0  0  0  0  0  0  0  0
  -27.3220   -8.5830  -27.9120 C   0  0  0  0  0  0  0  0  0  0  0  0
  -27.2520   -9.1610  -26.6580 C   0  0  0  0  0  0  0  0  0  0  0  0
  -28.3500   -9.8430  -26.1770 C   0  0  0  0  0  0  0  0  0  0  0  0
  -29.5630   -9.3670  -28.1810 C   0  0  0  0  0  0  0  0  0  0  0  0
  -29.5100   -9.9550  -26.9250 C   0  0  0  0  0  0  0  0  0  0  0  0
  -28.4370  -10.9810  -31.7510 C   0  0  0  0  0  0  0  0  0  0  0  0
  -29.6310  -10.9770  -32.0570 O   0  0  0  0  0  0  0  0  0  0  0  0
  -27.8460  -12.4220  -31.8560 C   0  0  0  0  0  0  0  0  0  0  0  0
  -28.9040  -13.4460  -31.3610 C   0  0  0  0  0  0  0  0  0  0  0  0
  1  2  2  0
  1  3  1  0
  1  6  1  0
  2  4  1  0
  3 13  1  0
  4  5  2  0
  5  6  1  0
  6  7  1  0
 13 14  2  0
 13 15  1  0
  7 11  1  0
  7  8  2  0
  8  9  1  0
  9 10  2  0
 10 12  1  0
 11 12  2  0
 15 16  1  0
M  END
>  <name>  (473) 
Car Nac Nd0 Car Nac Nac Car Car Car Car Car Car Cs2 .=O Cs3 Cs3

>  <indices>  (473) 
[0, 1, 2]

>  <tasks>  (473) 
probe_placing close_aromatic_ring close_aromatic_ring close_aromatic_ring ring_built build_to_Nac close_aromatic_ring close_aromatic_ring close_aromatic_ring close_aromatic_ring close_aromatic_ring build_to_Nd0 build_DB_to_Cs2 build_SB_to_Cs2

>  <prot_clashes>  (473) 
5

>  <NBS phar>  (473) 
0.24000000000000005

>  <NBS_non-phar>  (473) 
0.5308356285095215

>  <NBS>  (473) 
0.7708356285095215

>  <source_stage>  (473) 
scored

>  <source_iter>  (473) 
13

>  <source_parent_mol>  (473) 
4

>  <source_scenario>  (473) 
1 2 3 1 4 6 2 1 0 0 1 0 4

>  <source_rank_in_scored_call>  (473) 
18

>  <source_current_task>  (473) 
no_task

>  <scenario>  (473) 
1 2 3 1 4 6 2 1 0 0 1 0

>  <protected_ring_attachments>  (473) 
1,0,5,6|0,5,6;3,1,0,2|1,0,2;3,4,5,6|4,5,6;4,5,0,2|5,0,2

>  <current_task>  (473) 
no_task

>  <rotatable_bond_torsions>  (473) 
1,0,2,12;0,2,12,14;0,5,6,7

$$$$

     RDKit          3D

 16 17  0  0  0  0  0  0  0  0999 V2000
  -28.2230   -8.6670  -31.1660 C   0  0  0  0  0  0  0  0  0  0  0  0
  -28.3460   -7.7190  -32.1380 N   0  0  0  0  0  0  0  0  0  0  0  0
  -27.8000  -10.0640  -31.5180 N   0  0  0  0  0  0  0  0  0  0  0  0
  -28.7000   -6.5600  -31.5560 C   0  0  0  0  0  0  0  0  0  0  0  0
  -28.7930   -6.8040  -30.2220 N   0  0  0  0  0  0  0  0  0  0  0  0
  -28.5060   -8.0730  -29.9910 N   0  0  0  0  0  0  0  0  0  0  0  0
  -28.4370   -8.7420  -28.7330 C   0  0  0  0  0  0  0  0  0  0  0  0
  -27.2510   -8.7850  -28.0070 C   0  0  0  0  0  0  0  0  0  0  0  0
  -27.1850   -9.4160  -26.7790 C   0  0  0  0  0  0  0  0  0  0  0  0
  -28.3220  -10.0130  -26.2750 C   0  0  0  0  0  0  0  0  0  0  0  0
  -29.5650   -9.3480  -28.2060 C   0  0  0  0  0  0  0  0  0  0  0  0
  -29.5160   -9.9870  -26.9750 C   0  0  0  0  0  0  0  0  0  0  0  0
  -28.7400  -10.9150  -31.8770 C   0  0  0  0  0  0  0  0  0  0  0  0
  -29.9400  -10.7890  -32.1300 O   0  0  0  0  0  0  0  0  0  0  0  0
  -28.2920  -12.3990  -32.0590 C   0  0  0  0  0  0  0  0  0  0  0  0
  -27.6880  -12.9140  -30.7300 C   0  0  0  0  0  0  0  0  0  0  0  0
  1  2  2  0
  1  3  1  0
  1  6  1  0
  2  4  1  0
  3 13  1  0
  4  5  2  0
  5  6  1  0
  6  7  1  0
 13 14  2  0
 13 15  1  0
  7 11  1  0
  7  8  2  0
  8  9  1  0
  9 10  2  0
 10 12  1  0
 11 12  2  0
 15 16  1  0
M  END
>  <name>  (474) 
Car Nac Nd0 Car Nac Nac Car Car Car Car Car Car Cs2 .=O Cs3 Cs3

>  <indices>  (474) 
[0, 1, 2]

>  <tasks>  (474) 
probe_placing close_aromatic_ring close_aromatic_ring close_aromatic_ring ring_built build_to_Nac close_aromatic_ring close_aromatic_ring close_aromatic_ring close_aromatic_ring close_aromatic_ring build_to_Nd0 build_DB_to_Cs2 build_SB_to_Cs2

>  <prot_clashes>  (474) 
3

>  <NBS phar>  (474) 
0.24000000000000005

>  <NBS_non-phar>  (474) 
0.5224355459213257

>  <NBS>  (474) 
0.7624355459213257

>  <source_stage>  (474) 
scored

>  <source_iter>  (474) 
13

>  <source_parent_mol>  (474) 
4

>  <source_scenario>  (474) 
1 2 3 1 4 6 2 1 0 0 1 0 4

>  <source_rank_in_scored_call>  (474) 
25

>  <source_current_task>  (474) 
no_task

>  <scenario>  (474) 
1 2 3 1 4 6 2 1 0 0 1 0

>  <protected_ring_attachments>  (474) 
1,0,5,6|0,5,6;3,1,0,2|1,0,2;3,4,5,6|4,5,6;4,5,0,2|5,0,2

>  <current_task>  (474) 
no_task

>  <rotatable_bond_torsions>  (474) 
1,0,2,12;0,2,12,14;0,5,6,7

$$$$

     RDKit          3D

 16 17  0  0  0  0  0  0  0  0999 V2000
  -28.2400   -8.8110  -31.1570 C   0  0  0  0  0  0  0  0  0  0  0  0
  -28.3220   -8.0010  -32.2510 N   0  0  0  0  0  0  0  0  0  0  0  0
  -28.0440  -10.2910  -31.3220 N   0  0  0  0  0  0  0  0  0  0  0  0
  -28.4620   -6.7320  -31.8280 C   0  0  0  0  0  0  0  0  0  0  0  0
  -28.4640   -6.7700  -30.4680 N   0  0  0  0  0  0  0  0  0  0  0  0
  -28.3300   -8.0230  -30.0690 N   0  0  0  0  0  0  0  0  0  0  0  0
  -28.2370   -8.5120  -28.7320 C   0  0  0  0  0  0  0  0  0  0  0  0
  -27.0060   -8.6270  -28.0940 C   0  0  0  0  0  0  0  0  0  0  0  0
  -26.9140   -9.0830  -26.7920 C   0  0  0  0  0  0  0  0  0  0  0  0
  -28.0700   -9.4290  -26.1240 C   0  0  0  0  0  0  0  0  0  0  0  0
  -29.3840   -8.8650  -28.0400 C   0  0  0  0  0  0  0  0  0  0  0  0
  -29.3090   -9.3260  -26.7340 C   0  0  0  0  0  0  0  0  0  0  0  0
  -29.1190  -11.0350  -31.4810 C   0  0  0  0  0  0  0  0  0  0  0  0
  -30.3090  -10.7710  -31.6640 O   0  0  0  0  0  0  0  0  0  0  0  0
  -28.8940  -12.5800  -31.4670 C   0  0  0  0  0  0  0  0  0  0  0  0
  -27.4380  -12.8370  -31.7640 C   0  0  0  0  0  0  0  0  0  0  0  0
  1  2  2  0
  1  3  1  0
  1  6  1  0
  2  4  1  0
  3 13  1  0
  4  5  2  0
  5  6  1  0
  6  7  1  0
 13 14  2  0
 13 15  1  0
  7  8  2  0
  7 11  1  0
  8  9  1  0
  9 10  2  0
 10 12  1  0
 11 12  2  0
 15 16  1  0
M  END
>  <name>  (475) 
Car Nac Nd0 Car Nac Nac Car Car Car Car Car Car Cs2 .=O Cs3 Cs3

>  <indices>  (475) 
[0, 1, 2]

>  <tasks>  (475) 
probe_placing close_aromatic_ring close_aromatic_ring close_aromatic_ring ring_built build_to_Nac close_aromatic_ring close_aromatic_ring close_aromatic_ring close_aromatic_ring close_aromatic_ring build_to_Nd0 build_DB_to_Cs2 build_SB_to_Cs2

>  <prot_clashes>  (475) 
4

>  <NBS phar>  (475) 
0.22000000000000003

>  <NBS_non-phar>  (475) 
0.52994304895401

>  <NBS>  (475) 
0.74994304895401

>  <source_stage>  (475) 
scored

>  <source_iter>  (475) 
13

>  <source_parent_mol>  (475) 
4

>  <source_scenario>  (475) 
1 2 3 1 4 6 2 1 0 0 1 0 4

>  <source_rank_in_scored_call>  (475) 
31

>  <source_current_task>  (475) 
no_task

>  <scenario>  (475) 
1 2 3 1 4 6 2 1 0 0 1 0

>  <protected_ring_attachments>  (475) 
1,0,5,6|0,5,6;3,1,0,2|1,0,2;3,4,5,6|4,5,6;4,5,0,2|5,0,2

>  <current_task>  (475) 
no_task

>  <rotatable_bond_torsions>  (475) 
1,0,2,12;0,2,12,14;0,5,6,7

$$$$

     RDKit          3D

 16 17  0  0  0  0  0  0  0  0999 V2000
  -28.2920   -8.7020  -31.1380 C   0  0  0  0  0  0  0  0  0  0  0  0
  -28.4380   -7.8370  -32.1820 N   0  0  0  0  0  0  0  0  0  0  0  0
  -27.9870  -10.1500  -31.3900 N   0  0  0  0  0  0  0  0  0  0  0  0
  -28.6710   -6.6090  -31.6850 C   0  0  0  0  0  0  0  0  0  0  0  0
  -28.6660   -6.7280  -30.3300 N   0  0  0  0  0  0  0  0  0  0  0  0
  -28.4390   -7.9890  -30.0060 N   0  0  0  0  0  0  0  0  0  0  0  0
  -28.3060   -8.5480  -28.7000 C   0  0  0  0  0  0  0  0  0  0  0  0
  -27.0690   -8.6080  -28.0670 C   0  0  0  0  0  0  0  0  0  0  0  0
  -26.9390   -9.1320  -26.7940 C   0  0  0  0  0  0  0  0  0  0  0  0
  -28.0650   -9.6030  -26.1510 C   0  0  0  0  0  0  0  0  0  0  0  0
  -29.4220   -9.0260  -28.0320 C   0  0  0  0  0  0  0  0  0  0  0  0
  -29.3090   -9.5570  -26.7550 C   0  0  0  0  0  0  0  0  0  0  0  0
  -29.0040  -10.9620  -31.5950 C   0  0  0  0  0  0  0  0  0  0  0  0
  -30.2110  -10.7770  -31.7640 O   0  0  0  0  0  0  0  0  0  0  0  0
  -28.6640  -12.4840  -31.6720 C   0  0  0  0  0  0  0  0  0  0  0  0
  -28.4420  -12.8750  -33.1320 C   0  0  0  0  0  0  0  0  0  0  0  0
  1  2  2  0
  1  3  1  0
  1  6  1  0
  2  4  1  0
  3 13  1  0
  4  5  2  0
  5  6  1  0
  6  7  1  0
 13 14  2  0
 13 15  1  0
  7  8  2  0
  7 11  1  0
  8  9  1  0
  9 10  2  0
 10 12  1  0
 11 12  2  0
 15 16  1  0
M  END
>  <name>  (476) 
Car Nac Nd0 Car Nac Nac Car Car Car Car Car Car Cs2 .=O Cs3 Cs3

>  <indices>  (476) 
[0, 1, 2]

>  <tasks>  (476) 
probe_placing close_aromatic_ring close_aromatic_ring close_aromatic_ring ring_built build_to_Nac close_aromatic_ring close_aromatic_ring close_aromatic_ring close_aromatic_ring close_aromatic_ring build_to_Nd0 build_DB_to_Cs2 build_SB_to_Cs2

>  <prot_clashes>  (476) 
5

>  <NBS phar>  (476) 
0.22000000000000003

>  <NBS_non-phar>  (476) 
0.5292782783508301

>  <NBS>  (476) 
0.74927827835083

>  <source_stage>  (476) 
scored

>  <source_iter>  (476) 
13

>  <source_parent_mol>  (476) 
4

>  <source_scenario>  (476) 
1 2 3 1 4 6 2 1 0 0 1 0 4

>  <source_rank_in_scored_call>  (476) 
32

>  <source_current_task>  (476) 
no_task

>  <scenario>  (476) 
1 2 3 1 4 6 2 1 0 0 1 0

>  <protected_ring_attachments>  (476) 
1,0,5,6|0,5,6;3,1,0,2|1,0,2;3,4,5,6|4,5,6;4,5,0,2|5,0,2

>  <current_task>  (476) 
no_task

>  <rotatable_bond_torsions>  (476) 
1,0,2,12;0,2,12,14;0,5,6,7

$$$$

     RDKit          3D

 16 17  0  0  0  0  0  0  0  0999 V2000
  -28.1700   -8.6820  -31.1180 C   0  0  0  0  0  0  0  0  0  0  0  0
  -28.2960   -7.7870  -32.1390 N   0  0  0  0  0  0  0  0  0  0  0  0
  -27.6990  -10.0810  -31.3910 N   0  0  0  0  0  0  0  0  0  0  0  0
  -28.6970   -6.6110  -31.6230 C   0  0  0  0  0  0  0  0  0  0  0  0
  -28.8140   -6.7920  -30.2800 N   0  0  0  0  0  0  0  0  0  0  0  0
  -28.4970   -8.0400  -29.9810 N   0  0  0  0  0  0  0  0  0  0  0  0
  -28.4400   -8.6440  -28.6900 C   0  0  0  0  0  0  0  0  0  0  0  0
  -27.2710   -8.6170  -27.9360 C   0  0  0  0  0  0  0  0  0  0  0  0
  -27.2170   -9.1850  -26.6770 C   0  0  0  0  0  0  0  0  0  0  0  0
  -28.3490   -9.7900  -26.1700 C   0  0  0  0  0  0  0  0  0  0  0  0
  -29.5630   -9.2560  -28.1590 C   0  0  0  0  0  0  0  0  0  0  0  0
  -29.5260   -9.8330  -26.8970 C   0  0  0  0  0  0  0  0  0  0  0  0
  -28.6060  -10.9760  -31.7290 C   0  0  0  0  0  0  0  0  0  0  0  0
  -29.8020  -10.8980  -32.0150 O   0  0  0  0  0  0  0  0  0  0  0  0
  -28.1120  -12.4530  -31.8270 C   0  0  0  0  0  0  0  0  0  0  0  0
  -28.8130  -13.1890  -32.8640 C   0  0  0  0  0  0  0  0  0  0  0  0
  1  2  2  0
  1  3  1  0
  1  6  1  0
  2  4  1  0
  3 13  1  0
  4  5  2  0
  5  6  1  0
  6  7  1  0
 13 14  2  0
 13 15  1  0
  7 11  1  0
  7  8  2  0
  8  9  1  0
  9 10  2  0
 10 12  1  0
 11 12  2  0
 15 16  1  0
M  END
>  <name>  (477) 
Car Nac Nd0 Car Nac Nac Car Car Car Car Car Car Cs2 .=O Cs3 Cs3

>  <indices>  (477) 
[0, 1, 2]

>  <tasks>  (477) 
probe_placing close_aromatic_ring close_aromatic_ring close_aromatic_ring ring_built build_to_Nac close_aromatic_ring close_aromatic_ring close_aromatic_ring close_aromatic_ring close_aromatic_ring build_to_Nd0 build_DB_to_Cs2 build_SB_to_Cs2

>  <prot_clashes>  (477) 
5

>  <NBS phar>  (477) 
0.24000000000000005

>  <NBS_non-phar>  (477) 
0.5034451484680176

>  <NBS>  (477) 
0.7434451484680176

>  <source_stage>  (477) 
scored

>  <source_iter>  (477) 
13

>  <source_parent_mol>  (477) 
4

>  <source_scenario>  (477) 
1 2 3 1 4 6 2 1 0 0 1 0 4

>  <source_rank_in_scored_call>  (477) 
36

>  <source_current_task>  (477) 
no_task

>  <scenario>  (477) 
1 2 3 1 4 6 2 1 0 0 1 0

>  <protected_ring_attachments>  (477) 
1,0,5,6|0,5,6;3,1,0,2|1,0,2;3,4,5,6|4,5,6;4,5,0,2|5,0,2

>  <current_task>  (477) 
no_task

>  <rotatable_bond_torsions>  (477) 
1,0,2,12;0,2,12,14;0,5,6,7

$$$$

     RDKit          3D

 16 17  0  0  0  0  0  0  0  0999 V2000
  -28.1780   -8.6540  -31.1380 C   0  0  0  0  0  0  0  0  0  0  0  0
  -28.3170   -7.7450  -32.1440 N   0  0  0  0  0  0  0  0  0  0  0  0
  -27.6870  -10.0420  -31.4330 N   0  0  0  0  0  0  0  0  0  0  0  0
  -28.7360   -6.5830  -31.6100 C   0  0  0  0  0  0  0  0  0  0  0  0
  -28.8510   -6.7880  -30.2710 N   0  0  0  0  0  0  0  0  0  0  0  0
  -28.5160   -8.0350  -29.9910 N   0  0  0  0  0  0  0  0  0  0  0  0
  -28.4500   -8.6590  -28.7100 C   0  0  0  0  0  0  0  0  0  0  0  0
  -27.2820   -8.6270  -27.9550 C   0  0  0  0  0  0  0  0  0  0  0  0
  -27.2210   -9.2150  -26.7050 C   0  0  0  0  0  0  0  0  0  0  0  0
  -28.3430   -9.8430  -26.2090 C   0  0  0  0  0  0  0  0  0  0  0  0
  -29.5650   -9.2960  -28.1890 C   0  0  0  0  0  0  0  0  0  0  0  0
  -29.5200   -9.8920  -26.9370 C   0  0  0  0  0  0  0  0  0  0  0  0
  -28.5810  -10.9440  -31.7850 C   0  0  0  0  0  0  0  0  0  0  0  0
  -29.7780  -10.8790  -32.0710 O   0  0  0  0  0  0  0  0  0  0  0  0
  -28.0650  -12.4120  -31.9070 C   0  0  0  0  0  0  0  0  0  0  0  0
  -28.0140  -13.1980  -30.5620 C   0  0  0  0  0  0  0  0  0  0  0  0
  1  2  2  0
  1  3  1  0
  1  6  1  0
  2  4  1  0
  3 13  1  0
  4  5  2  0
  5  6  1  0
  6  7  1  0
 13 14  2  0
 13 15  1  0
  7 11  1  0
  7  8  2  0
  8  9  1  0
  9 10  2  0
 10 12  1  0
 11 12  2  0
 15 16  1  0
M  END
>  <name>  (478) 
Car Nac Nd0 Car Nac Nac Car Car Car Car Car Car Cs2 .=O Cs3 Cs3

>  <indices>  (478) 
[0, 1, 2]

>  <tasks>  (478) 
probe_placing close_aromatic_ring close_aromatic_ring close_aromatic_ring ring_built build_to_Nac close_aromatic_ring close_aromatic_ring close_aromatic_ring close_aromatic_ring close_aromatic_ring build_to_Nd0 build_DB_to_Cs2 build_SB_to_Cs2

>  <prot_clashes>  (478) 
2

>  <NBS phar>  (478) 
0.24000000000000005

>  <NBS_non-phar>  (478) 
0.4894898533821106

>  <NBS>  (478) 
0.7294898533821106

>  <source_stage>  (478) 
scored

>  <source_iter>  (478) 
13

>  <source_parent_mol>  (478) 
4

>  <source_scenario>  (478) 
1 2 3 1 4 6 2 1 0 0 1 0 4

>  <source_rank_in_scored_call>  (478) 
49

>  <source_current_task>  (478) 
no_task

>  <scenario>  (478) 
1 2 3 1 4 6 2 1 0 0 1 0

>  <protected_ring_attachments>  (478) 
1,0,5,6|0,5,6;3,1,0,2|1,0,2;3,4,5,6|4,5,6;4,5,0,2|5,0,2

>  <current_task>  (478) 
no_task

>  <rotatable_bond_torsions>  (478) 
1,0,2,12;0,2,12,14;0,5,6,7

$$$$

     RDKit          3D

 16 17  0  0  0  0  0  0  0  0999 V2000
  -28.1640   -8.6710  -31.1320 C   0  0  0  0  0  0  0  0  0  0  0  0
  -28.2670   -7.7450  -32.1270 N   0  0  0  0  0  0  0  0  0  0  0  0
  -27.6870  -10.0620  -31.4380 N   0  0  0  0  0  0  0  0  0  0  0  0
  -28.6800   -6.5850  -31.5840 C   0  0  0  0  0  0  0  0  0  0  0  0
  -28.8290   -6.8080  -30.2510 N   0  0  0  0  0  0  0  0  0  0  0  0
  -28.5180   -8.0650  -29.9830 N   0  0  0  0  0  0  0  0  0  0  0  0
  -28.4900   -8.7090  -28.7110 C   0  0  0  0  0  0  0  0  0  0  0  0
  -27.3390   -8.7060  -27.9300 C   0  0  0  0  0  0  0  0  0  0  0  0
  -27.3140   -9.3130  -26.6880 C   0  0  0  0  0  0  0  0  0  0  0  0
  -28.4560   -9.9330  -26.2270 C   0  0  0  0  0  0  0  0  0  0  0  0
  -29.6250   -9.3370  -28.2250 C   0  0  0  0  0  0  0  0  0  0  0  0
  -29.6170   -9.9530  -26.9820 C   0  0  0  0  0  0  0  0  0  0  0  0
  -28.5850  -10.9450  -31.8240 C   0  0  0  0  0  0  0  0  0  0  0  0
  -29.7750  -10.8580  -32.1350 O   0  0  0  0  0  0  0  0  0  0  0  0
  -28.0890  -12.4190  -31.9570 C   0  0  0  0  0  0  0  0  0  0  0  0
  -28.4410  -10.6000  -24.8740 C   0  0  0  0  0  0  0  0  0  0  0  0
  1  2  2  0
  1  3  1  0
  1  6  1  0
  2  4  1  0
  3 13  1  0
  4  5  2  0
  5  6  1  0
  6  7  1  0
 13 14  2  0
 13 15  1  0
  7 11  1  0
  7  8  2  0
  8  9  1  0
  9 10  2  0
 10 12  1  0
 10 16  1  0
 11 12  2  0
M  END
>  <name>  (479) 
Car Nac Nd0 Car Nac Nac Car Car Car Car Car Car Cs2 .=O Cs3 Cs3

>  <indices>  (479) 
[0, 1, 2]

>  <tasks>  (479) 
probe_placing close_aromatic_ring close_aromatic_ring close_aromatic_ring ring_built build_to_Nac close_aromatic_ring close_aromatic_ring close_aromatic_ring close_aromatic_ring close_aromatic_ring build_to_Nd0 build_DB_to_Cs2 build_SB_to_Cs2

>  <prot_clashes>  (479) 
3

>  <NBS phar>  (479) 
0.22000000000000003

>  <NBS_non-phar>  (479) 
0.49984970688819885

>  <NBS>  (479) 
0.7198497068881988

>  <source_stage>  (479) 
scored

>  <source_iter>  (479) 
13

>  <source_parent_mol>  (479) 
4

>  <source_scenario>  (479) 
1 2 3 1 4 6 2 1 0 0 1 0 4

>  <source_rank_in_scored_call>  (479) 
57

>  <source_current_task>  (479) 
no_task

>  <scenario>  (479) 
1 2 3 1 4 6 2 1 0 0 1 0

>  <protected_ring_attachments>  (479) 
1,0,5,6|0,5,6;3,1,0,2|1,0,2;3,4,5,6|4,5,6;4,5,0,2|5,0,2

>  <current_task>  (479) 
no_task

>  <rotatable_bond_torsions>  (479) 
1,0,2,12;0,2,12,14;0,5,6,7

$$$$

     RDKit          3D

 16 17  0  0  0  0  0  0  0  0999 V2000
  -28.2110   -8.8080  -31.0180 C   0  0  0  0  0  0  0  0  0  0  0  0
  -28.2190   -7.8950  -32.0300 N   0  0  0  0  0  0  0  0  0  0  0  0
  -27.5780  -10.1550  -31.2170 N   0  0  0  0  0  0  0  0  0  0  0  0
  -28.8110   -6.7730  -31.5830 C   0  0  0  0  0  0  0  0  0  0  0  0
  -29.1640   -7.0050  -30.2900 N   0  0  0  0  0  0  0  0  0  0  0  0
  -28.8020   -8.2320  -29.9540 N   0  0  0  0  0  0  0  0  0  0  0  0
  -28.9370   -8.8690  -28.6860 C   0  0  0  0  0  0  0  0  0  0  0  0
  -27.9390   -8.7700  -27.7220 C   0  0  0  0  0  0  0  0  0  0  0  0
  -28.0740   -9.3710  -26.4850 C   0  0  0  0  0  0  0  0  0  0  0  0
  -29.2240  -10.0820  -26.2130 C   0  0  0  0  0  0  0  0  0  0  0  0
  -30.0830   -9.5880  -28.3880 C   0  0  0  0  0  0  0  0  0  0  0  0
  -30.2350  -10.2000  -27.1520 C   0  0  0  0  0  0  0  0  0  0  0  0
  -28.3230  -11.1100  -31.7350 C   0  0  0  0  0  0  0  0  0  0  0  0
  -29.4460  -11.1220  -32.2430 O   0  0  0  0  0  0  0  0  0  0  0  0
  -27.6930  -12.5380  -31.7600 C   0  0  0  0  0  0  0  0  0  0  0  0
  -26.9830   -9.2520  -25.4500 C   0  0  0  0  0  0  0  0  0  0  0  0
  1  2  2  0
  1  3  1  0
  1  6  1  0
  2  4  1  0
  3 13  1  0
  4  5  2  0
  5  6  1  0
  6  7  1  0
 13 14  2  0
 13 15  1  0
  7 11  1  0
  7  8  2  0
  8  9  1  0
  9 10  2  0
  9 16  1  0
 10 12  1  0
 11 12  2  0
M  END
>  <name>  (480) 
Car Nac Nd0 Car Nac Nac Car Car Car Car Car Car Cs2 .=O Cs3 Cs3

>  <indices>  (480) 
[0, 1, 2]

>  <tasks>  (480) 
probe_placing close_aromatic_ring close_aromatic_ring close_aromatic_ring ring_built build_to_Nac close_aromatic_ring close_aromatic_ring close_aromatic_ring close_aromatic_ring close_aromatic_ring build_to_Nd0 build_DB_to_Cs2 build_SB_to_Cs2

>  <prot_clashes>  (480) 
5

>  <NBS phar>  (480) 
0.26

>  <NBS_non-phar>  (480) 
0.4490569233894348

>  <NBS>  (480) 
0.7090569233894348

>  <source_stage>  (480) 
scored

>  <source_iter>  (480) 
13

>  <source_parent_mol>  (480) 
4

>  <source_scenario>  (480) 
1 2 3 1 4 6 2 1 0 0 1 0 4

>  <source_rank_in_scored_call>  (480) 
64

>  <source_current_task>  (480) 
no_task

>  <scenario>  (480) 
1 2 3 1 4 6 2 1 0 0 1 0

>  <protected_ring_attachments>  (480) 
1,0,5,6|0,5,6;3,1,0,2|1,0,2;3,4,5,6|4,5,6;4,5,0,2|5,0,2

>  <current_task>  (480) 
no_task

>  <rotatable_bond_torsions>  (480) 
1,0,2,12;0,2,12,14;0,5,6,7

$$$$

     RDKit          3D

 16 17  0  0  0  0  0  0  0  0999 V2000
  -28.0470   -8.7850  -31.1040 C   0  0  0  0  0  0  0  0  0  0  0  0
  -28.0490   -7.8340  -32.0800 N   0  0  0  0  0  0  0  0  0  0  0  0
  -27.7320  -10.2150  -31.4380 N   0  0  0  0  0  0  0  0  0  0  0  0
  -28.3260   -6.6460  -31.5140 C   0  0  0  0  0  0  0  0  0  0  0  0
  -28.4930   -6.8760  -30.1840 N   0  0  0  0  0  0  0  0  0  0  0  0
  -28.3260   -8.1650  -29.9420 N   0  0  0  0  0  0  0  0  0  0  0  0
  -28.3660   -8.8320  -28.6820 C   0  0  0  0  0  0  0  0  0  0  0  0
  -27.2190   -8.9740  -27.9080 C   0  0  0  0  0  0  0  0  0  0  0  0
  -27.2570   -9.6040  -26.6780 C   0  0  0  0  0  0  0  0  0  0  0  0
  -28.4610  -10.0990  -26.2210 C   0  0  0  0  0  0  0  0  0  0  0  0
  -29.5630   -9.3370  -28.2010 C   0  0  0  0  0  0  0  0  0  0  0  0
  -29.6190   -9.9740  -26.9690 C   0  0  0  0  0  0  0  0  0  0  0  0
  -28.7260  -10.9830  -31.8350 C   0  0  0  0  0  0  0  0  0  0  0  0
  -29.8990  -10.7550  -32.1370 O   0  0  0  0  0  0  0  0  0  0  0  0
  -28.4000  -12.5000  -31.9990 C   0  0  0  0  0  0  0  0  0  0  0  0
  -28.4320   -5.3150  -32.2170 C   0  0  0  0  0  0  0  0  0  0  0  0
  1  2  2  0
  1  3  1  0
  1  6  1  0
  2  4  1  0
  3 13  1  0
  4 16  1  0
  4  5  2  0
  5  6  1  0
  6  7  1  0
 13 14  2  0
 13 15  1  0
  7 11  1  0
  7  8  2  0
  8  9  1  0
  9 10  2  0
 10 12  1  0
 11 12  2  0
M  END
>  <name>  (481) 
Car Nac Nd0 Car Nac Nac Car Car Car Car Car Car Cs2 .=O Cs3 Cs3

>  <indices>  (481) 
[0, 1, 2]

>  <tasks>  (481) 
probe_placing close_aromatic_ring close_aromatic_ring close_aromatic_ring ring_built build_to_Nac close_aromatic_ring close_aromatic_ring close_aromatic_ring close_aromatic_ring close_aromatic_ring build_to_Nd0 build_DB_to_Cs2 build_SB_to_Cs2

>  <prot_clashes>  (481) 
5

>  <NBS phar>  (481) 
0.22000000000000003

>  <NBS_non-phar>  (481) 
0.4737716615200043

>  <NBS>  (481) 
0.6937716615200042

>  <source_stage>  (481) 
scored

>  <source_iter>  (481) 
13

>  <source_parent_mol>  (481) 
4

>  <source_scenario>  (481) 
1 2 3 1 4 6 2 1 0 0 1 0 4

>  <source_rank_in_scored_call>  (481) 
80

>  <source_current_task>  (481) 
no_task

>  <scenario>  (481) 
1 2 3 1 4 6 2 1 0 0 1 0

>  <protected_ring_attachments>  (481) 
1,0,5,6|0,5,6;3,1,0,2|1,0,2;3,4,5,6|4,5,6;4,5,0,2|5,0,2

>  <current_task>  (481) 
no_task

>  <rotatable_bond_torsions>  (481) 
1,0,2,12;0,2,12,14;0,5,6,7

$$$$

     RDKit          3D

 16 17  0  0  0  0  0  0  0  0999 V2000
  -28.1690   -8.6680  -31.1150 C   0  0  0  0  0  0  0  0  0  0  0  0
  -28.3350   -7.7670  -32.1250 N   0  0  0  0  0  0  0  0  0  0  0  0
  -27.6110  -10.0330  -31.4000 N   0  0  0  0  0  0  0  0  0  0  0  0
  -28.8130   -6.6250  -31.5990 C   0  0  0  0  0  0  0  0  0  0  0  0
  -28.9370   -6.8330  -30.2600 N   0  0  0  0  0  0  0  0  0  0  0  0
  -28.5490   -8.0630  -29.9740 N   0  0  0  0  0  0  0  0  0  0  0  0
  -28.4720   -8.6820  -28.6910 C   0  0  0  0  0  0  0  0  0  0  0  0
  -27.3170   -8.5950  -27.9200 C   0  0  0  0  0  0  0  0  0  0  0  0
  -27.2450   -9.1770  -26.6680 C   0  0  0  0  0  0  0  0  0  0  0  0
  -28.3440   -9.8560  -26.1860 C   0  0  0  0  0  0  0  0  0  0  0  0
  -29.5630   -9.3680  -28.1830 C   0  0  0  0  0  0  0  0  0  0  0  0
  -29.5080   -9.9590  -26.9290 C   0  0  0  0  0  0  0  0  0  0  0  0
  -28.4580  -10.9750  -31.7630 C   0  0  0  0  0  0  0  0  0  0  0  0
  -29.6530  -10.9650  -32.0640 O   0  0  0  0  0  0  0  0  0  0  0  0
  -27.8740  -12.4180  -31.8750 C   0  0  0  0  0  0  0  0  0  0  0  0
  -28.8130  -13.5570  -31.5990 C   0  0  0  0  0  0  0  0  0  0  0  0
  1  2  2  0
  1  3  1  0
  1  6  1  0
  2  4  1  0
  3 13  1  0
  4  5  2  0
  5  6  1  0
  6  7  1  0
 13 14  2  0
 13 15  1  0
  7 11  1  0
  7  8  2  0
  8  9  1  0
  9 10  2  0
 10 12  1  0
 11 12  2  0
 15 16  1  0
M  END
>  <name>  (482) 
Car Nac Nd0 Car Nac Nac Car Car Car Car Car Car Cs2 .=O Cs3 Cs3

>  <indices>  (482) 
[0, 1, 2]

>  <tasks>  (482) 
probe_placing close_aromatic_ring close_aromatic_ring close_aromatic_ring ring_built build_to_Nac close_aromatic_ring close_aromatic_ring close_aromatic_ring close_aromatic_ring close_aromatic_ring build_to_Nd0 build_DB_to_Cs2 build_SB_to_Cs2

>  <prot_clashes>  (482) 
4

>  <NBS phar>  (482) 
0.13999999999999999

>  <NBS_non-phar>  (482) 
0.5320823788642883

>  <NBS>  (482) 
0.6720823788642883

>  <source_stage>  (482) 
scored

>  <source_iter>  (482) 
13

>  <source_parent_mol>  (482) 
4

>  <source_scenario>  (482) 
1 2 3 1 4 6 2 1 0 0 1 0 4

>  <source_rank_in_scored_call>  (482) 
87

>  <source_current_task>  (482) 
no_task

>  <scenario>  (482) 
1 2 3 1 4 6 2 1 0 0 1 0

>  <protected_ring_attachments>  (482) 
1,0,5,6|0,5,6;3,1,0,2|1,0,2;3,4,5,6|4,5,6;4,5,0,2|5,0,2

>  <current_task>  (482) 
no_task

>  <rotatable_bond_torsions>  (482) 
1,0,2,12;0,2,12,14;0,5,6,7

$$$$

     RDKit          3D

 16 17  0  0  0  0  0  0  0  0999 V2000
  -28.1920   -8.6670  -31.1480 C   0  0  0  0  0  0  0  0  0  0  0  0
  -28.3020   -7.7280  -32.1300 N   0  0  0  0  0  0  0  0  0  0  0  0
  -27.7430  -10.0620  -31.4780 N   0  0  0  0  0  0  0  0  0  0  0  0
  -28.6860   -6.5690  -31.5660 C   0  0  0  0  0  0  0  0  0  0  0  0
  -28.8080   -6.8040  -30.2320 N   0  0  0  0  0  0  0  0  0  0  0  0
  -28.5110   -8.0680  -29.9850 N   0  0  0  0  0  0  0  0  0  0  0  0
  -28.4650   -8.7270  -28.7210 C   0  0  0  0  0  0  0  0  0  0  0  0
  -27.2980   -8.7500  -27.9650 C   0  0  0  0  0  0  0  0  0  0  0  0
  -27.2550   -9.3710  -26.7310 C   0  0  0  0  0  0  0  0  0  0  0  0
  -28.3960   -9.9780  -26.2510 C   0  0  0  0  0  0  0  0  0  0  0  0
  -29.5990   -9.3430  -28.2170 C   0  0  0  0  0  0  0  0  0  0  0  0
  -29.5730   -9.9730  -26.9810 C   0  0  0  0  0  0  0  0  0  0  0  0
  -28.6630  -10.9260  -31.8540 C   0  0  0  0  0  0  0  0  0  0  0  0
  -29.8570  -10.8180  -32.1380 O   0  0  0  0  0  0  0  0  0  0  0  0
  -28.1920  -12.4060  -32.0140 C   0  0  0  0  0  0  0  0  0  0  0  0
  -27.6890  -13.0040  -30.6560 C   0  0  0  0  0  0  0  0  0  0  0  0
  1  2  2  0
  1  3  1  0
  1  6  1  0
  2  4  1  0
  3 13  1  0
  4  5  2  0
  5  6  1  0
  6  7  1  0
 13 14  2  0
 13 15  1  0
  7 11  1  0
  7  8  2  0
  8  9  1  0
  9 10  2  0
 10 12  1  0
 11 12  2  0
 15 16  1  0
M  END
>  <name>  (483) 
Car Nac Nd0 Car Nac Nac Car Car Car Car Car Car Cs2 .=O Cs3 Cs3

>  <indices>  (483) 
[0, 1, 2]

>  <tasks>  (483) 
probe_placing close_aromatic_ring close_aromatic_ring close_aromatic_ring ring_built build_to_Nac close_aromatic_ring close_aromatic_ring close_aromatic_ring close_aromatic_ring close_aromatic_ring build_to_Nd0 build_DB_to_Cs2 build_SB_to_Cs2

>  <prot_clashes>  (483) 
2

>  <NBS phar>  (483) 
0.13999999999999999

>  <NBS_non-phar>  (483) 
0.5106321573257446

>  <NBS>  (483) 
0.6506321573257446

>  <source_stage>  (483) 
scored

>  <source_iter>  (483) 
13

>  <source_parent_mol>  (483) 
4

>  <source_scenario>  (483) 
1 2 3 1 4 6 2 1 0 0 1 0 4

>  <source_rank_in_scored_call>  (483) 
100

>  <source_current_task>  (483) 
no_task

>  <scenario>  (483) 
1 2 3 1 4 6 2 1 0 0 1 0

>  <protected_ring_attachments>  (483) 
1,0,5,6|0,5,6;3,1,0,2|1,0,2;3,4,5,6|4,5,6;4,5,0,2|5,0,2

>  <current_task>  (483) 
no_task

>  <rotatable_bond_torsions>  (483) 
1,0,2,12;0,2,12,14;0,5,6,7

$$$$

     RDKit          3D

 16 17  0  0  0  0  0  0  0  0999 V2000
  -28.1830   -8.6680  -31.1310 C   0  0  0  0  0  0  0  0  0  0  0  0
  -28.3190   -7.7320  -32.1120 N   0  0  0  0  0  0  0  0  0  0  0  0
  -27.6890  -10.0480  -31.4620 N   0  0  0  0  0  0  0  0  0  0  0  0
  -28.7410   -6.5860  -31.5480 C   0  0  0  0  0  0  0  0  0  0  0  0
  -28.8610   -6.8270  -30.2150 N   0  0  0  0  0  0  0  0  0  0  0  0
  -28.5250   -8.0820  -29.9680 N   0  0  0  0  0  0  0  0  0  0  0  0
  -28.4630   -8.7410  -28.7050 C   0  0  0  0  0  0  0  0  0  0  0  0
  -27.2980   -8.7280  -27.9450 C   0  0  0  0  0  0  0  0  0  0  0  0
  -27.2410   -9.3500  -26.7110 C   0  0  0  0  0  0  0  0  0  0  0  0
  -28.3640   -9.9930  -26.2370 C   0  0  0  0  0  0  0  0  0  0  0  0
  -29.5790   -9.3930  -28.2060 C   0  0  0  0  0  0  0  0  0  0  0  0
  -29.5380  -10.0230  -26.9710 C   0  0  0  0  0  0  0  0  0  0  0  0
  -28.5810  -10.9400  -31.8430 C   0  0  0  0  0  0  0  0  0  0  0  0
  -29.7770  -10.8680  -32.1300 O   0  0  0  0  0  0  0  0  0  0  0  0
  -28.0630  -12.4040  -32.0030 C   0  0  0  0  0  0  0  0  0  0  0  0
  -30.7560  -10.7320  -26.4340 C   0  0  0  0  0  0  0  0  0  0  0  0
  1  2  2  0
  1  3  1  0
  1  6  1  0
  2  4  1  0
  3 13  1  0
  4  5  2  0
  5  6  1  0
  6  7  1  0
 13 14  2  0
 13 15  1  0
  7 11  1  0
  7  8  2  0
  8  9  1  0
  9 10  2  0
 10 12  1  0
 11 12  2  0
 12 16  1  0
M  END
>  <name>  (484) 
Car Nac Nd0 Car Nac Nac Car Car Car Car Car Car Cs2 .=O Cs3 Cs3

>  <indices>  (484) 
[0, 1, 2]

>  <tasks>  (484) 
probe_placing close_aromatic_ring close_aromatic_ring close_aromatic_ring ring_built build_to_Nac close_aromatic_ring close_aromatic_ring close_aromatic_ring close_aromatic_ring close_aromatic_ring build_to_Nd0 build_DB_to_Cs2 build_SB_to_Cs2

>  <prot_clashes>  (484) 
2

>  <NBS phar>  (484) 
0.12

>  <NBS_non-phar>  (484) 
0.5182570219039917

>  <NBS>  (484) 
0.6382570219039917

>  <source_stage>  (484) 
scored

>  <source_iter>  (484) 
13

>  <source_parent_mol>  (484) 
4

>  <source_scenario>  (484) 
1 2 3 1 4 6 2 1 0 0 1 0 4

>  <source_rank_in_scored_call>  (484) 
103

>  <source_current_task>  (484) 
no_task

>  <scenario>  (484) 
1 2 3 1 4 6 2 1 0 0 1 0

>  <protected_ring_attachments>  (484) 
1,0,5,6|0,5,6;3,1,0,2|1,0,2;3,4,5,6|4,5,6;4,5,0,2|5,0,2

>  <current_task>  (484) 
no_task

>  <rotatable_bond_torsions>  (484) 
1,0,2,12;0,2,12,14;0,5,6,7

$$$$

     RDKit          3D

 16 17  0  0  0  0  0  0  0  0999 V2000
  -28.2860   -8.7610  -31.1110 C   0  0  0  0  0  0  0  0  0  0  0  0
  -28.3980   -7.9420  -32.1950 N   0  0  0  0  0  0  0  0  0  0  0  0
  -28.0440  -10.2320  -31.2940 N   0  0  0  0  0  0  0  0  0  0  0  0
  -28.5760   -6.6830  -31.7560 C   0  0  0  0  0  0  0  0  0  0  0  0
  -28.5710   -6.7370  -30.3980 N   0  0  0  0  0  0  0  0  0  0  0  0
  -28.3970   -7.9890  -30.0130 N   0  0  0  0  0  0  0  0  0  0  0  0
  -28.2830   -8.4900  -28.6830 C   0  0  0  0  0  0  0  0  0  0  0  0
  -27.0470   -8.5740  -28.0500 C   0  0  0  0  0  0  0  0  0  0  0  0
  -26.9350   -9.0410  -26.7540 C   0  0  0  0  0  0  0  0  0  0  0  0
  -28.0770   -9.4320  -26.0860 C   0  0  0  0  0  0  0  0  0  0  0  0
  -29.4160   -8.8880  -27.9910 C   0  0  0  0  0  0  0  0  0  0  0  0
  -29.3210   -9.3610  -26.6900 C   0  0  0  0  0  0  0  0  0  0  0  0
  -29.0960  -11.0080  -31.4570 C   0  0  0  0  0  0  0  0  0  0  0  0
  -30.2940  -10.7800  -31.6330 O   0  0  0  0  0  0  0  0  0  0  0  0
  -28.8220  -12.5450  -31.4620 C   0  0  0  0  0  0  0  0  0  0  0  0
  -27.4100  -12.8150  -31.7690 C   0  0  0  0  0  0  0  0  0  0  0  0
  1  2  2  0
  1  3  1  0
  1  6  1  0
  2  4  1  0
  3 13  1  0
  4  5  2  0
  5  6  1  0
  6  7  1  0
 13 14  2  0
 13 15  1  0
  7  8  2  0
  7 11  1  0
  8  9  1  0
  9 10  2  0
 10 12  1  0
 11 12  2  0
 15 16  1  0
M  END
>  <name>  (485) 
Car Nac Nd0 Car Nac Nac Car Car Car Car Car Car Cs2 .=O Cs3 Cs3

>  <indices>  (485) 
[0, 1, 2]

>  <tasks>  (485) 
probe_placing close_aromatic_ring close_aromatic_ring close_aromatic_ring ring_built build_to_Nac close_aromatic_ring close_aromatic_ring close_aromatic_ring close_aromatic_ring close_aromatic_ring build_to_Nd0 build_DB_to_Cs2 build_SB_to_Cs2

>  <prot_clashes>  (485) 
5

>  <NBS phar>  (485) 
0.12

>  <NBS_non-phar>  (485) 
0.5163381099700928

>  <NBS>  (485) 
0.6363381099700928

>  <source_stage>  (485) 
scored

>  <source_iter>  (485) 
13

>  <source_parent_mol>  (485) 
4

>  <source_scenario>  (485) 
1 2 3 1 4 6 2 1 0 0 1 0 4

>  <source_rank_in_scored_call>  (485) 
104

>  <source_current_task>  (485) 
no_task

>  <scenario>  (485) 
1 2 3 1 4 6 2 1 0 0 1 0

>  <protected_ring_attachments>  (485) 
1,0,5,6|0,5,6;3,1,0,2|1,0,2;3,4,5,6|4,5,6;4,5,0,2|5,0,2

>  <current_task>  (485) 
no_task

>  <rotatable_bond_torsions>  (485) 
1,0,2,12;0,2,12,14;0,5,6,7

$$$$

     RDKit          3D

 16 17  0  0  0  0  0  0  0  0999 V2000
  -28.1820   -8.6550  -31.1250 C   0  0  0  0  0  0  0  0  0  0  0  0
  -28.3240   -7.7490  -32.1340 N   0  0  0  0  0  0  0  0  0  0  0  0
  -27.6890  -10.0430  -31.4160 N   0  0  0  0  0  0  0  0  0  0  0  0
  -28.7430   -6.5870  -31.6030 C   0  0  0  0  0  0  0  0  0  0  0  0
  -28.8560   -6.7870  -30.2620 N   0  0  0  0  0  0  0  0  0  0  0  0
  -28.5190   -8.0330  -29.9790 N   0  0  0  0  0  0  0  0  0  0  0  0
  -28.4500   -8.6530  -28.6960 C   0  0  0  0  0  0  0  0  0  0  0  0
  -27.2810   -8.6170  -27.9430 C   0  0  0  0  0  0  0  0  0  0  0  0
  -27.2160   -9.2000  -26.6920 C   0  0  0  0  0  0  0  0  0  0  0  0
  -28.3370   -9.8300  -26.1920 C   0  0  0  0  0  0  0  0  0  0  0  0
  -29.5630   -9.2900  -28.1720 C   0  0  0  0  0  0  0  0  0  0  0  0
  -29.5150   -9.8830  -26.9180 C   0  0  0  0  0  0  0  0  0  0  0  0
  -28.5820  -10.9480  -31.7650 C   0  0  0  0  0  0  0  0  0  0  0  0
  -29.7800  -10.8850  -32.0490 O   0  0  0  0  0  0  0  0  0  0  0  0
  -28.0640  -12.4150  -31.8830 C   0  0  0  0  0  0  0  0  0  0  0  0
  -28.8120  -13.4090  -31.0450 C   0  0  0  0  0  0  0  0  0  0  0  0
  1  2  2  0
  1  3  1  0
  1  6  1  0
  2  4  1  0
  3 13  1  0
  4  5  2  0
  5  6  1  0
  6  7  1  0
 13 14  2  0
 13 15  1  0
  7 11  1  0
  7  8  2  0
  8  9  1  0
  9 10  2  0
 10 12  1  0
 11 12  2  0
 15 16  1  0
M  END
>  <name>  (486) 
Car Nac Nd0 Car Nac Nac Car Car Car Car Car Car Cs2 .=O Cs3 Cs3

>  <indices>  (486) 
[0, 1, 2]

>  <tasks>  (486) 
probe_placing close_aromatic_ring close_aromatic_ring close_aromatic_ring ring_built build_to_Nac close_aromatic_ring close_aromatic_ring close_aromatic_ring close_aromatic_ring close_aromatic_ring build_to_Nd0 build_DB_to_Cs2 build_SB_to_Cs2

>  <prot_clashes>  (486) 
3

>  <NBS phar>  (486) 
0.13999999999999999

>  <NBS_non-phar>  (486) 
0.49211788177490234

>  <NBS>  (486) 
0.6321178817749024

>  <source_stage>  (486) 
scored

>  <source_iter>  (486) 
13

>  <source_parent_mol>  (486) 
4

>  <source_scenario>  (486) 
1 2 3 1 4 6 2 1 0 0 1 0 4

>  <source_rank_in_scored_call>  (486) 
107

>  <source_current_task>  (486) 
no_task

>  <scenario>  (486) 
1 2 3 1 4 6 2 1 0 0 1 0

>  <protected_ring_attachments>  (486) 
1,0,5,6|0,5,6;3,1,0,2|1,0,2;3,4,5,6|4,5,6;4,5,0,2|5,0,2

>  <current_task>  (486) 
no_task

>  <rotatable_bond_torsions>  (486) 
1,0,2,12;0,2,12,14;0,5,6,7

$$$$

     RDKit          3D

 15 16  0  0  0  0  0  0  0  0999 V2000
  -28.0340   -8.0060  -31.3770 C   0  0  0  0  0  0  0  0  0  0  0  0
  -28.1520   -7.0330  -32.3260 N   0  0  0  0  0  0  0  0  0  0  0  0
  -27.6820   -9.4100  -31.7710 N   0  0  0  0  0  0  0  0  0  0  0  0
  -28.4380   -5.8720  -31.7120 C   0  0  0  0  0  0  0  0  0  0  0  0
  -28.4950   -6.1400  -30.3790 N   0  0  0  0  0  0  0  0  0  0  0  0
  -28.2540   -7.4240  -30.1840 N   0  0  0  0  0  0  0  0  0  0  0  0
  -28.1710   -8.1210  -28.9410 C   0  0  0  0  0  0  0  0  0  0  0  0
  -26.9640   -8.2260  -28.2570 C   0  0  0  0  0  0  0  0  0  0  0  0
  -26.8840   -8.8870  -27.0440 C   0  0  0  0  0  0  0  0  0  0  0  0
  -28.0260   -9.4460  -26.5120 C   0  0  0  0  0  0  0  0  0  0  0  0
  -29.3050   -8.6910  -28.3870 C   0  0  0  0  0  0  0  0  0  0  0  0
  -29.2410   -9.3560  -27.1710 C   0  0  0  0  0  0  0  0  0  0  0  0
  -28.5580  -10.4910  -31.4780 C   0  0  0  0  0  0  0  0  0  0  0  0
  -29.6860  -10.4150  -31.0380 O   0  0  0  0  0  0  0  0  0  0  0  0
  -28.0480  -11.8760  -31.7680 C   0  0  0  0  0  0  0  0  0  0  0  0
  1  2  2  0
  1  3  1  0
  1  6  1  0
  2  4  1  0
  3 13  1  0
  4  5  2  0
  5  6  1  0
  6  7  1  0
 13 15  1  0
 13 14  2  0
  7 11  1  0
  7  8  2  0
  8  9  1  0
  9 10  2  0
 10 12  1  0
 11 12  2  0
M  END
>  <name>  (487) 
Car Nac Nd0 Car Nac Nac Car Car Car Car Car Car Cs2 .=O Cs3

>  <indices>  (487) 
[0, 1, 2]

>  <tasks>  (487) 
probe_placing close_aromatic_ring close_aromatic_ring close_aromatic_ring ring_built build_to_Nac close_aromatic_ring close_aromatic_ring close_aromatic_ring close_aromatic_ring close_aromatic_ring build_to_Nd0 build_DB_to_Cs2

>  <prot_clashes>  (487) 
4

>  <NBS phar>  (487) 
0.34

>  <NBS_non-phar>  (487) 
0.5345664342244466

>  <NBS>  (487) 
0.8745664342244466

>  <source_stage>  (487) 
scored

>  <source_iter>  (487) 
12

>  <source_parent_mol>  (487) 
0

>  <source_scenario>  (487) 
1 2 3 1 4 6 2 1 0 0 2 0

>  <source_rank_in_scored_call>  (487) 
1

>  <source_current_task>  (487) 
build_SB_to_Cs2

>  <scenario>  (487) 
1 2 3 1 4 6 2 1 0 0 2

>  <protected_ring_attachments>  (487) 
1,0,5,6|0,5,6;3,1,0,2|1,0,2;3,4,5,6|4,5,6;4,5,0,2|5,0,2

>  <current_task>  (487) 
no_task

>  <rotatable_bond_torsions>  (487) 
1,0,2,12;0,2,12,13;0,5,6,7

$$$$

     RDKit          3D

 16 17  0  0  0  0  0  0  0  0999 V2000
  -28.0320   -8.0040  -31.3830 C   0  0  0  0  0  0  0  0  0  0  0  0
  -28.1380   -7.0370  -32.3400 N   0  0  0  0  0  0  0  0  0  0  0  0
  -27.6730   -9.4100  -31.7640 N   0  0  0  0  0  0  0  0  0  0  0  0
  -28.4330   -5.8730  -31.7360 C   0  0  0  0  0  0  0  0  0  0  0  0
  -28.5080   -6.1330  -30.4030 N   0  0  0  0  0  0  0  0  0  0  0  0
  -28.2680   -7.4150  -30.1970 N   0  0  0  0  0  0  0  0  0  0  0  0
  -28.2010   -8.1050  -28.9490 C   0  0  0  0  0  0  0  0  0  0  0  0
  -27.0030   -8.2040  -28.2480 C   0  0  0  0  0  0  0  0  0  0  0  0
  -26.9380   -8.8580  -27.0300 C   0  0  0  0  0  0  0  0  0  0  0  0
  -28.0870   -9.4150  -26.5100 C   0  0  0  0  0  0  0  0  0  0  0  0
  -29.3410   -8.6730  -28.4060 C   0  0  0  0  0  0  0  0  0  0  0  0
  -29.2930   -9.3310  -27.1860 C   0  0  0  0  0  0  0  0  0  0  0  0
  -28.5520  -10.4900  -31.4770 C   0  0  0  0  0  0  0  0  0  0  0  0
  -29.6850  -10.4130  -31.0520 O   0  0  0  0  0  0  0  0  0  0  0  0
  -28.0360  -11.8760  -31.7510 C   0  0  0  0  0  0  0  0  0  0  0  0
  -28.0280  -10.1290  -25.1820 C   0  0  0  0  0  0  0  0  0  0  0  0
  1  2  2  0
  1  3  1  0
  1  6  1  0
  2  4  1  0
  3 13  1  0
  4  5  2  0
  5  6  1  0
  6  7  1  0
 13 15  1  0
 13 14  2  0
  7 11  1  0
  7  8  2  0
  8  9  1  0
  9 10  2  0
 10 12  1  0
 10 16  1  0
 11 12  2  0
M  END
>  <name>  (488) 
Car Nac Nd0 Car Nac Nac Car Car Car Car Car Car Cs2 .=O Cs3 Cs3

>  <indices>  (488) 
[0, 1, 2]

>  <tasks>  (488) 
probe_placing close_aromatic_ring close_aromatic_ring close_aromatic_ring ring_built build_to_Nac close_aromatic_ring close_aromatic_ring close_aromatic_ring close_aromatic_ring close_aromatic_ring build_to_Nd0 build_DB_to_Cs2 build_SB_to_Cs2

>  <prot_clashes>  (488) 
4

>  <NBS phar>  (488) 
0.36000000000000004

>  <NBS_non-phar>  (488) 
0.5489062666893005

>  <NBS>  (488) 
0.9089062666893006

>  <source_stage>  (488) 
scored

>  <source_iter>  (488) 
13

>  <source_parent_mol>  (488) 
1

>  <source_scenario>  (488) 
1 2 3 1 4 6 2 1 0 0 2 0 1

>  <source_rank_in_scored_call>  (488) 
10

>  <source_current_task>  (488) 
no_task

>  <scenario>  (488) 
1 2 3 1 4 6 2 1 0 0 2 0

>  <protected_ring_attachments>  (488) 
1,0,5,6|0,5,6;3,1,0,2|1,0,2;3,4,5,6|4,5,6;4,5,0,2|5,0,2

>  <current_task>  (488) 
no_task

>  <rotatable_bond_torsions>  (488) 
1,0,2,12;0,2,12,14;0,5,6,7

$$$$

     RDKit          3D

 16 17  0  0  0  0  0  0  0  0999 V2000
  -28.0180   -8.1890  -31.4300 C   0  0  0  0  0  0  0  0  0  0  0  0
  -28.1430   -7.2680  -32.4290 N   0  0  0  0  0  0  0  0  0  0  0  0
  -27.6520   -9.6080  -31.7480 N   0  0  0  0  0  0  0  0  0  0  0  0
  -28.4400   -6.0790  -31.8780 C   0  0  0  0  0  0  0  0  0  0  0  0
  -28.4980   -6.2770  -30.5330 N   0  0  0  0  0  0  0  0  0  0  0  0
  -28.2460   -7.5460  -30.2700 N   0  0  0  0  0  0  0  0  0  0  0  0
  -28.1600   -8.1760  -28.9910 C   0  0  0  0  0  0  0  0  0  0  0  0
  -26.9530   -8.2330  -28.3000 C   0  0  0  0  0  0  0  0  0  0  0  0
  -26.8700   -8.8280  -27.0540 C   0  0  0  0  0  0  0  0  0  0  0  0
  -28.0080   -9.3690  -26.4950 C   0  0  0  0  0  0  0  0  0  0  0  0
  -29.2900   -8.7260  -28.4100 C   0  0  0  0  0  0  0  0  0  0  0  0
  -29.2220   -9.3250  -27.1600 C   0  0  0  0  0  0  0  0  0  0  0  0
  -28.5190  -10.6800  -31.4000 C   0  0  0  0  0  0  0  0  0  0  0  0
  -29.6490  -10.5910  -30.9670 O   0  0  0  0  0  0  0  0  0  0  0  0
  -27.9960  -12.0740  -31.6150 C   0  0  0  0  0  0  0  0  0  0  0  0
  -28.7970  -12.8640  -32.6300 C   0  0  0  0  0  0  0  0  0  0  0  0
  1  2  2  0
  1  3  1  0
  1  6  1  0
  2  4  1  0
  3 13  1  0
  4  5  2  0
  5  6  1  0
  6  7  1  0
 13 15  1  0
 13 14  2  0
  7 11  1  0
  7  8  2  0
  8  9  1  0
  9 10  2  0
 10 12  1  0
 11 12  2  0
 15 16  1  0
M  END
>  <name>  (489) 
Car Nac Nd0 Car Nac Nac Car Car Car Car Car Car Cs2 .=O Cs3 Cs3

>  <indices>  (489) 
[0, 1, 2]

>  <tasks>  (489) 
probe_placing close_aromatic_ring close_aromatic_ring close_aromatic_ring ring_built build_to_Nac close_aromatic_ring close_aromatic_ring close_aromatic_ring close_aromatic_ring close_aromatic_ring build_to_Nd0 build_DB_to_Cs2 build_SB_to_Cs2

>  <prot_clashes>  (489) 
6

>  <NBS phar>  (489) 
0.34

>  <NBS_non-phar>  (489) 
0.5439947247505188

>  <NBS>  (489) 
0.8839947247505189

>  <source_stage>  (489) 
scored

>  <source_iter>  (489) 
13

>  <source_parent_mol>  (489) 
1

>  <source_scenario>  (489) 
1 2 3 1 4 6 2 1 0 0 2 0 1

>  <source_rank_in_scored_call>  (489) 
24

>  <source_current_task>  (489) 
no_task

>  <scenario>  (489) 
1 2 3 1 4 6 2 1 0 0 2 0

>  <protected_ring_attachments>  (489) 
1,0,5,6|0,5,6;3,1,0,2|1,0,2;3,4,5,6|4,5,6;4,5,0,2|5,0,2

>  <current_task>  (489) 
no_task

>  <rotatable_bond_torsions>  (489) 
1,0,2,12;0,2,12,14;0,5,6,7

$$$$

     RDKit          3D

 16 17  0  0  0  0  0  0  0  0999 V2000
  -28.0160   -8.0070  -31.3760 C   0  0  0  0  0  0  0  0  0  0  0  0
  -28.1310   -7.0340  -32.3250 N   0  0  0  0  0  0  0  0  0  0  0  0
  -27.6430   -9.4060  -31.7670 N   0  0  0  0  0  0  0  0  0  0  0  0
  -28.4390   -5.8770  -31.7140 C   0  0  0  0  0  0  0  0  0  0  0  0
  -28.5120   -6.1480  -30.3820 N   0  0  0  0  0  0  0  0  0  0  0  0
  -28.2600   -7.4290  -30.1860 N   0  0  0  0  0  0  0  0  0  0  0  0
  -28.1870   -8.1270  -28.9430 C   0  0  0  0  0  0  0  0  0  0  0  0
  -26.9890   -8.2200  -28.2410 C   0  0  0  0  0  0  0  0  0  0  0  0
  -26.9190   -8.8820  -27.0280 C   0  0  0  0  0  0  0  0  0  0  0  0
  -28.0620   -9.4540  -26.5130 C   0  0  0  0  0  0  0  0  0  0  0  0
  -29.3220   -8.7100  -28.4060 C   0  0  0  0  0  0  0  0  0  0  0  0
  -29.2680   -9.3760  -27.1900 C   0  0  0  0  0  0  0  0  0  0  0  0
  -28.5110  -10.4970  -31.4880 C   0  0  0  0  0  0  0  0  0  0  0  0
  -29.6460  -10.4340  -31.0640 O   0  0  0  0  0  0  0  0  0  0  0  0
  -27.9820  -11.8760  -31.7720 C   0  0  0  0  0  0  0  0  0  0  0  0
  -28.0640  -12.8200  -30.5870 C   0  0  0  0  0  0  0  0  0  0  0  0
  1  2  2  0
  1  3  1  0
  1  6  1  0
  2  4  1  0
  3 13  1  0
  4  5  2  0
  5  6  1  0
  6  7  1  0
 13 15  1  0
 13 14  2  0
  7 11  1  0
  7  8  2  0
  8  9  1  0
  9 10  2  0
 10 12  1  0
 11 12  2  0
 15 16  1  0
M  END
>  <name>  (490) 
Car Nac Nd0 Car Nac Nac Car Car Car Car Car Car Cs2 .=O Cs3 Cs3

>  <indices>  (490) 
[0, 1, 2]

>  <tasks>  (490) 
probe_placing close_aromatic_ring close_aromatic_ring close_aromatic_ring ring_built build_to_Nac close_aromatic_ring close_aromatic_ring close_aromatic_ring close_aromatic_ring close_aromatic_ring build_to_Nd0 build_DB_to_Cs2 build_SB_to_Cs2

>  <prot_clashes>  (490) 
4

>  <NBS phar>  (490) 
0.36000000000000004

>  <NBS_non-phar>  (490) 
0.5217421054840088

>  <NBS>  (490) 
0.8817421054840089

>  <source_stage>  (490) 
scored

>  <source_iter>  (490) 
13

>  <source_parent_mol>  (490) 
1

>  <source_scenario>  (490) 
1 2 3 1 4 6 2 1 0 0 2 0 1

>  <source_rank_in_scored_call>  (490) 
25

>  <source_current_task>  (490) 
no_task

>  <scenario>  (490) 
1 2 3 1 4 6 2 1 0 0 2 0

>  <protected_ring_attachments>  (490) 
1,0,5,6|0,5,6;3,1,0,2|1,0,2;3,4,5,6|4,5,6;4,5,0,2|5,0,2

>  <current_task>  (490) 
no_task

>  <rotatable_bond_torsions>  (490) 
1,0,2,12;0,2,12,14;0,5,6,7

$$$$

     RDKit          3D

 16 17  0  0  0  0  0  0  0  0999 V2000
  -28.1340   -7.9870  -31.5070 C   0  0  0  0  0  0  0  0  0  0  0  0
  -28.1920   -7.1130  -32.5540 N   0  0  0  0  0  0  0  0  0  0  0  0
  -28.1310   -9.4660  -31.7540 N   0  0  0  0  0  0  0  0  0  0  0  0
  -28.1480   -5.8620  -32.0670 C   0  0  0  0  0  0  0  0  0  0  0  0
  -28.0620   -5.9730  -30.7130 N   0  0  0  0  0  0  0  0  0  0  0  0
  -28.0570   -7.2520  -30.3830 N   0  0  0  0  0  0  0  0  0  0  0  0
  -27.9340   -7.8200  -29.0790 C   0  0  0  0  0  0  0  0  0  0  0  0
  -26.6860   -8.1120  -28.5380 C   0  0  0  0  0  0  0  0  0  0  0  0
  -26.5640   -8.6470  -27.2680 C   0  0  0  0  0  0  0  0  0  0  0  0
  -27.7040   -8.8890  -26.5330 C   0  0  0  0  0  0  0  0  0  0  0  0
  -29.0660   -8.0720  -28.3220 C   0  0  0  0  0  0  0  0  0  0  0  0
  -28.9600   -8.6070  -27.0460 C   0  0  0  0  0  0  0  0  0  0  0  0
  -29.1530  -10.2970  -31.2190 C   0  0  0  0  0  0  0  0  0  0  0  0
  -30.1660   -9.9350  -30.6590 O   0  0  0  0  0  0  0  0  0  0  0  0
  -28.9770  -11.7820  -31.3850 C   0  0  0  0  0  0  0  0  0  0  0  0
  -27.6870  -12.1120  -32.1230 C   0  0  0  0  0  0  0  0  0  0  0  0
  1  2  2  0
  1  3  1  0
  1  6  1  0
  2  4  1  0
  3 13  1  0
  4  5  2  0
  5  6  1  0
  6  7  1  0
 13 15  1  0
 13 14  2  0
  7  8  2  0
  7 11  1  0
  8  9  1  0
  9 10  2  0
 10 12  1  0
 11 12  2  0
 15 16  1  0
M  END
>  <name>  (491) 
Car Nac Nd0 Car Nac Nac Car Car Car Car Car Car Cs2 .=O Cs3 Cs3

>  <indices>  (491) 
[0, 1, 2]

>  <tasks>  (491) 
probe_placing close_aromatic_ring close_aromatic_ring close_aromatic_ring ring_built build_to_Nac close_aromatic_ring close_aromatic_ring close_aromatic_ring close_aromatic_ring close_aromatic_ring build_to_Nd0 build_DB_to_Cs2 build_SB_to_Cs2

>  <prot_clashes>  (491) 
7

>  <NBS phar>  (491) 
0.34

>  <NBS_non-phar>  (491) 
0.5297670364379883

>  <NBS>  (491) 
0.8697670364379884

>  <source_stage>  (491) 
scored

>  <source_iter>  (491) 
13

>  <source_parent_mol>  (491) 
1

>  <source_scenario>  (491) 
1 2 3 1 4 6 2 1 0 0 2 0 1

>  <source_rank_in_scored_call>  (491) 
30

>  <source_current_task>  (491) 
no_task

>  <scenario>  (491) 
1 2 3 1 4 6 2 1 0 0 2 0

>  <protected_ring_attachments>  (491) 
1,0,5,6|0,5,6;3,1,0,2|1,0,2;3,4,5,6|4,5,6;4,5,0,2|5,0,2

>  <current_task>  (491) 
no_task

>  <rotatable_bond_torsions>  (491) 
1,0,2,12;0,2,12,14;0,5,6,7

$$$$

     RDKit          3D

 16 17  0  0  0  0  0  0  0  0999 V2000
  -28.0320   -8.0050  -31.3780 C   0  0  0  0  0  0  0  0  0  0  0  0
  -28.1440   -7.0290  -32.3250 N   0  0  0  0  0  0  0  0  0  0  0  0
  -27.6730   -9.4070  -31.7750 N   0  0  0  0  0  0  0  0  0  0  0  0
  -28.4390   -5.8710  -31.7090 C   0  0  0  0  0  0  0  0  0  0  0  0
  -28.5070   -6.1440  -30.3770 N   0  0  0  0  0  0  0  0  0  0  0  0
  -28.2640   -7.4280  -30.1850 N   0  0  0  0  0  0  0  0  0  0  0  0
  -28.1900   -8.1300  -28.9440 C   0  0  0  0  0  0  0  0  0  0  0  0
  -26.9890   -8.2350  -28.2500 C   0  0  0  0  0  0  0  0  0  0  0  0
  -26.9180   -8.9000  -27.0390 C   0  0  0  0  0  0  0  0  0  0  0  0
  -28.0640   -9.4640  -26.5190 C   0  0  0  0  0  0  0  0  0  0  0  0
  -29.3280   -8.7050  -28.4020 C   0  0  0  0  0  0  0  0  0  0  0  0
  -29.2730   -9.3740  -27.1880 C   0  0  0  0  0  0  0  0  0  0  0  0
  -28.5490  -10.4910  -31.4930 C   0  0  0  0  0  0  0  0  0  0  0  0
  -29.6810  -10.4200  -31.0630 O   0  0  0  0  0  0  0  0  0  0  0  0
  -28.0330  -11.8740  -31.7840 C   0  0  0  0  0  0  0  0  0  0  0  0
  -28.5430  -12.8440  -30.6870 C   0  0  0  0  0  0  0  0  0  0  0  0
  1  2  2  0
  1  3  1  0
  1  6  1  0
  2  4  1  0
  3 13  1  0
  4  5  2  0
  5  6  1  0
  6  7  1  0
 13 15  1  0
 13 14  2  0
  7 11  1  0
  7  8  2  0
  8  9  1  0
  9 10  2  0
 10 12  1  0
 11 12  2  0
 15 16  1  0
M  END
>  <name>  (492) 
Car Nac Nd0 Car Nac Nac Car Car Car Car Car Car Cs2 .=O Cs3 Cs3

>  <indices>  (492) 
[0, 1, 2]

>  <tasks>  (492) 
probe_placing close_aromatic_ring close_aromatic_ring close_aromatic_ring ring_built build_to_Nac close_aromatic_ring close_aromatic_ring close_aromatic_ring close_aromatic_ring close_aromatic_ring build_to_Nd0 build_DB_to_Cs2 build_SB_to_Cs2

>  <prot_clashes>  (492) 
4

>  <NBS phar>  (492) 
0.38000000000000006

>  <NBS_non-phar>  (492) 
0.48712241649627686

>  <NBS>  (492) 
0.867122416496277

>  <source_stage>  (492) 
scored

>  <source_iter>  (492) 
13

>  <source_parent_mol>  (492) 
1

>  <source_scenario>  (492) 
1 2 3 1 4 6 2 1 0 0 2 0 1

>  <source_rank_in_scored_call>  (492) 
32

>  <source_current_task>  (492) 
no_task

>  <scenario>  (492) 
1 2 3 1 4 6 2 1 0 0 2 0

>  <protected_ring_attachments>  (492) 
1,0,5,6|0,5,6;3,1,0,2|1,0,2;3,4,5,6|4,5,6;4,5,0,2|5,0,2

>  <current_task>  (492) 
no_task

>  <rotatable_bond_torsions>  (492) 
1,0,2,12;0,2,12,14;0,5,6,7

$$$$

     RDKit          3D

 16 17  0  0  0  0  0  0  0  0999 V2000
  -28.0050   -8.0260  -31.3550 C   0  0  0  0  0  0  0  0  0  0  0  0
  -28.1520   -7.0560  -32.3040 N   0  0  0  0  0  0  0  0  0  0  0  0
  -27.5570   -9.4040  -31.7430 N   0  0  0  0  0  0  0  0  0  0  0  0
  -28.5270   -5.9180  -31.6950 C   0  0  0  0  0  0  0  0  0  0  0  0
  -28.6080   -6.1970  -30.3650 N   0  0  0  0  0  0  0  0  0  0  0  0
  -28.2960   -7.4650  -30.1680 N   0  0  0  0  0  0  0  0  0  0  0  0
  -28.2100   -8.1630  -28.9250 C   0  0  0  0  0  0  0  0  0  0  0  0
  -27.0200   -8.1990  -28.2040 C   0  0  0  0  0  0  0  0  0  0  0  0
  -26.9380   -8.8600  -26.9920 C   0  0  0  0  0  0  0  0  0  0  0  0
  -28.0600   -9.4900  -26.4980 C   0  0  0  0  0  0  0  0  0  0  0  0
  -29.3240   -8.8030  -28.4090 C   0  0  0  0  0  0  0  0  0  0  0  0
  -29.2570   -9.4700  -27.1940 C   0  0  0  0  0  0  0  0  0  0  0  0
  -28.3750  -10.5370  -31.4820 C   0  0  0  0  0  0  0  0  0  0  0  0
  -29.5180  -10.5320  -31.0770 O   0  0  0  0  0  0  0  0  0  0  0  0
  -27.7730  -11.8870  -31.7610 C   0  0  0  0  0  0  0  0  0  0  0  0
  -28.8140  -12.8320  -32.2070 C   0  0  0  0  0  0  0  0  0  0  0  0
  1  2  2  0
  1  3  1  0
  1  6  1  0
  2  4  1  0
  3 13  1  0
  4  5  2  0
  5  6  1  0
  6  7  1  0
 13 15  1  0
 13 14  2  0
  7 11  1  0
  7  8  2  0
  8  9  1  0
  9 10  2  0
 10 12  1  0
 11 12  2  0
 15 16  1  0
M  END
>  <name>  (493) 
Car Nac Nd0 Car Nac Nac Car Car Car Car Car Car Cs2 .=O Cs3 Cs3

>  <indices>  (493) 
[0, 1, 2]

>  <tasks>  (493) 
probe_placing close_aromatic_ring close_aromatic_ring close_aromatic_ring ring_built build_to_Nac close_aromatic_ring close_aromatic_ring close_aromatic_ring close_aromatic_ring close_aromatic_ring build_to_Nd0 build_DB_to_Cs2 build_SB_to_Cs2

>  <prot_clashes>  (493) 
5

>  <NBS phar>  (493) 
0.34

>  <NBS_non-phar>  (493) 
0.5269905924797058

>  <NBS>  (493) 
0.8669905924797059

>  <source_stage>  (493) 
scored

>  <source_iter>  (493) 
13

>  <source_parent_mol>  (493) 
1

>  <source_scenario>  (493) 
1 2 3 1 4 6 2 1 0 0 2 0 1

>  <source_rank_in_scored_call>  (493) 
33

>  <source_current_task>  (493) 
no_task

>  <scenario>  (493) 
1 2 3 1 4 6 2 1 0 0 2 0

>  <protected_ring_attachments>  (493) 
1,0,5,6|0,5,6;3,1,0,2|1,0,2;3,4,5,6|4,5,6;4,5,0,2|5,0,2

>  <current_task>  (493) 
no_task

>  <rotatable_bond_torsions>  (493) 
1,0,2,12;0,2,12,14;0,5,6,7

$$$$

     RDKit          3D

 16 17  0  0  0  0  0  0  0  0999 V2000
  -27.9990   -8.0740  -31.4320 C   0  0  0  0  0  0  0  0  0  0  0  0
  -28.1500   -7.2050  -32.4730 N   0  0  0  0  0  0  0  0  0  0  0  0
  -27.6410   -9.5080  -31.6880 N   0  0  0  0  0  0  0  0  0  0  0  0
  -28.4340   -5.9890  -31.9760 C   0  0  0  0  0  0  0  0  0  0  0  0
  -28.4560   -6.1190  -30.6210 N   0  0  0  0  0  0  0  0  0  0  0  0
  -28.1960   -7.3730  -30.3010 N   0  0  0  0  0  0  0  0  0  0  0  0
  -28.0760   -7.9370  -28.9950 C   0  0  0  0  0  0  0  0  0  0  0  0
  -26.8510   -7.9610  -28.3340 C   0  0  0  0  0  0  0  0  0  0  0  0
  -26.7350   -8.4920  -27.0620 C   0  0  0  0  0  0  0  0  0  0  0  0
  -27.8580   -9.0030  -26.4460 C   0  0  0  0  0  0  0  0  0  0  0  0
  -29.1900   -8.4570  -28.3570 C   0  0  0  0  0  0  0  0  0  0  0  0
  -29.0890   -8.9920  -27.0800 C   0  0  0  0  0  0  0  0  0  0  0  0
  -28.4980  -10.5600  -31.2630 C   0  0  0  0  0  0  0  0  0  0  0  0
  -29.6160  -10.4490  -30.8050 O   0  0  0  0  0  0  0  0  0  0  0  0
  -27.9800  -11.9640  -31.4210 C   0  0  0  0  0  0  0  0  0  0  0  0
  -28.4460  -12.5340  -32.7630 C   0  0  0  0  0  0  0  0  0  0  0  0
  1  2  2  0
  1  3  1  0
  1  6  1  0
  2  4  1  0
  3 13  1  0
  4  5  2  0
  5  6  1  0
  6  7  1  0
 13 15  1  0
 13 14  2  0
  7 11  1  0
  7  8  2  0
  8  9  1  0
  9 10  2  0
 10 12  1  0
 11 12  2  0
 15 16  1  0
M  END
>  <name>  (494) 
Car Nac Nd0 Car Nac Nac Car Car Car Car Car Car Cs2 .=O Cs3 Cs3

>  <indices>  (494) 
[0, 1, 2]

>  <tasks>  (494) 
probe_placing close_aromatic_ring close_aromatic_ring close_aromatic_ring ring_built build_to_Nac close_aromatic_ring close_aromatic_ring close_aromatic_ring close_aromatic_ring close_aromatic_ring build_to_Nd0 build_DB_to_Cs2 build_SB_to_Cs2

>  <prot_clashes>  (494) 
5

>  <NBS phar>  (494) 
0.32

>  <NBS_non-phar>  (494) 
0.543132483959198

>  <NBS>  (494) 
0.8631324839591981

>  <source_stage>  (494) 
scored

>  <source_iter>  (494) 
13

>  <source_parent_mol>  (494) 
1

>  <source_scenario>  (494) 
1 2 3 1 4 6 2 1 0 0 2 0 1

>  <source_rank_in_scored_call>  (494) 
38

>  <source_current_task>  (494) 
no_task

>  <scenario>  (494) 
1 2 3 1 4 6 2 1 0 0 2 0

>  <protected_ring_attachments>  (494) 
1,0,5,6|0,5,6;3,1,0,2|1,0,2;3,4,5,6|4,5,6;4,5,0,2|5,0,2

>  <current_task>  (494) 
no_task

>  <rotatable_bond_torsions>  (494) 
1,0,2,12;0,2,12,14;0,5,6,7

$$$$

     RDKit          3D

 16 17  0  0  0  0  0  0  0  0999 V2000
  -28.0050   -8.0280  -31.3570 C   0  0  0  0  0  0  0  0  0  0  0  0
  -28.1570   -7.0580  -32.3050 N   0  0  0  0  0  0  0  0  0  0  0  0
  -27.5490   -9.4030  -31.7450 N   0  0  0  0  0  0  0  0  0  0  0  0
  -28.5380   -5.9230  -31.6960 C   0  0  0  0  0  0  0  0  0  0  0  0
  -28.6200   -6.2020  -30.3670 N   0  0  0  0  0  0  0  0  0  0  0  0
  -28.3010   -7.4690  -30.1700 N   0  0  0  0  0  0  0  0  0  0  0  0
  -28.2120   -8.1670  -28.9270 C   0  0  0  0  0  0  0  0  0  0  0  0
  -27.0230   -8.1960  -28.2050 C   0  0  0  0  0  0  0  0  0  0  0  0
  -26.9390   -8.8580  -26.9930 C   0  0  0  0  0  0  0  0  0  0  0  0
  -28.0580   -9.4940  -26.5000 C   0  0  0  0  0  0  0  0  0  0  0  0
  -29.3230   -8.8130  -28.4130 C   0  0  0  0  0  0  0  0  0  0  0  0
  -29.2550   -9.4800  -27.1980 C   0  0  0  0  0  0  0  0  0  0  0  0
  -28.3610  -10.5410  -31.4850 C   0  0  0  0  0  0  0  0  0  0  0  0
  -29.5050  -10.5420  -31.0820 O   0  0  0  0  0  0  0  0  0  0  0  0
  -27.7520  -11.8880  -31.7640 C   0  0  0  0  0  0  0  0  0  0  0  0
  -28.8120  -12.8300  -32.2050 C   0  0  0  0  0  0  0  0  0  0  0  0
  1  2  2  0
  1  3  1  0
  1  6  1  0
  2  4  1  0
  3 13  1  0
  4  5  2  0
  5  6  1  0
  6  7  1  0
 13 15  1  0
 13 14  2  0
  7 11  1  0
  7  8  2  0
  8  9  1  0
  9 10  2  0
 10 12  1  0
 11 12  2  0
 15 16  1  0
M  END
>  <name>  (495) 
Car Nac Nd0 Car Nac Nac Car Car Car Car Car Car Cs2 .=O Cs3 Cs3

>  <indices>  (495) 
[0, 1, 2]

>  <tasks>  (495) 
probe_placing close_aromatic_ring close_aromatic_ring close_aromatic_ring ring_built build_to_Nac close_aromatic_ring close_aromatic_ring close_aromatic_ring close_aromatic_ring close_aromatic_ring build_to_Nd0 build_DB_to_Cs2 build_SB_to_Cs2

>  <prot_clashes>  (495) 
5

>  <NBS phar>  (495) 
0.34

>  <NBS_non-phar>  (495) 
0.5198206901550293

>  <NBS>  (495) 
0.8598206901550294

>  <source_stage>  (495) 
scored

>  <source_iter>  (495) 
13

>  <source_parent_mol>  (495) 
1

>  <source_scenario>  (495) 
1 2 3 1 4 6 2 1 0 0 2 0 1

>  <source_rank_in_scored_call>  (495) 
41

>  <source_current_task>  (495) 
no_task

>  <scenario>  (495) 
1 2 3 1 4 6 2 1 0 0 2 0

>  <protected_ring_attachments>  (495) 
1,0,5,6|0,5,6;3,1,0,2|1,0,2;3,4,5,6|4,5,6;4,5,0,2|5,0,2

>  <current_task>  (495) 
no_task

>  <rotatable_bond_torsions>  (495) 
1,0,2,12;0,2,12,14;0,5,6,7

$$$$

     RDKit          3D

 16 17  0  0  0  0  0  0  0  0999 V2000
  -28.0320   -8.0050  -31.3780 C   0  0  0  0  0  0  0  0  0  0  0  0
  -28.1430   -7.0280  -32.3230 N   0  0  0  0  0  0  0  0  0  0  0  0
  -27.6730   -9.4070  -31.7760 N   0  0  0  0  0  0  0  0  0  0  0  0
  -28.4370   -5.8700  -31.7060 C   0  0  0  0  0  0  0  0  0  0  0  0
  -28.5050   -6.1450  -30.3750 N   0  0  0  0  0  0  0  0  0  0  0  0
  -28.2630   -7.4300  -30.1840 N   0  0  0  0  0  0  0  0  0  0  0  0
  -28.1900   -8.1330  -28.9440 C   0  0  0  0  0  0  0  0  0  0  0  0
  -26.9890   -8.2390  -28.2500 C   0  0  0  0  0  0  0  0  0  0  0  0
  -26.9180   -8.9060  -27.0390 C   0  0  0  0  0  0  0  0  0  0  0  0
  -28.0640   -9.4700  -26.5200 C   0  0  0  0  0  0  0  0  0  0  0  0
  -29.3280   -8.7080  -28.4030 C   0  0  0  0  0  0  0  0  0  0  0  0
  -29.2730   -9.3790  -27.1900 C   0  0  0  0  0  0  0  0  0  0  0  0
  -28.5500  -10.4910  -31.4960 C   0  0  0  0  0  0  0  0  0  0  0  0
  -29.6820  -10.4190  -31.0660 O   0  0  0  0  0  0  0  0  0  0  0  0
  -28.0340  -11.8730  -31.7890 C   0  0  0  0  0  0  0  0  0  0  0  0
  -28.6070  -12.9860  -30.9180 C   0  0  0  0  0  0  0  0  0  0  0  0
  1  2  2  0
  1  3  1  0
  1  6  1  0
  2  4  1  0
  3 13  1  0
  4  5  2  0
  5  6  1  0
  6  7  1  0
 13 15  1  0
 13 14  2  0
  7 11  1  0
  7  8  2  0
  8  9  1  0
  9 10  2  0
 10 12  1  0
 11 12  2  0
 15 16  1  0
M  END
>  <name>  (496) 
Car Nac Nd0 Car Nac Nac Car Car Car Car Car Car Cs2 .=O Cs3 Cs3

>  <indices>  (496) 
[0, 1, 2]

>  <tasks>  (496) 
probe_placing close_aromatic_ring close_aromatic_ring close_aromatic_ring ring_built build_to_Nac close_aromatic_ring close_aromatic_ring close_aromatic_ring close_aromatic_ring close_aromatic_ring build_to_Nd0 build_DB_to_Cs2 build_SB_to_Cs2

>  <prot_clashes>  (496) 
4

>  <NBS phar>  (496) 
0.36000000000000004

>  <NBS_non-phar>  (496) 
0.488384872674942

>  <NBS>  (496) 
0.8483848726749421

>  <source_stage>  (496) 
scored

>  <source_iter>  (496) 
13

>  <source_parent_mol>  (496) 
1

>  <source_scenario>  (496) 
1 2 3 1 4 6 2 1 0 0 2 0 1

>  <source_rank_in_scored_call>  (496) 
50

>  <source_current_task>  (496) 
no_task

>  <scenario>  (496) 
1 2 3 1 4 6 2 1 0 0 2 0

>  <protected_ring_attachments>  (496) 
1,0,5,6|0,5,6;3,1,0,2|1,0,2;3,4,5,6|4,5,6;4,5,0,2|5,0,2

>  <current_task>  (496) 
no_task

>  <rotatable_bond_torsions>  (496) 
1,0,2,12;0,2,12,14;0,5,6,7

$$$$

     RDKit          3D

 16 17  0  0  0  0  0  0  0  0999 V2000
  -28.0980   -8.0380  -31.4550 C   0  0  0  0  0  0  0  0  0  0  0  0
  -28.1580   -7.1790  -32.5130 N   0  0  0  0  0  0  0  0  0  0  0  0
  -28.0710   -9.5200  -31.6830 N   0  0  0  0  0  0  0  0  0  0  0  0
  -28.1360   -5.9210  -32.0420 C   0  0  0  0  0  0  0  0  0  0  0  0
  -28.0630   -6.0140  -30.6860 N   0  0  0  0  0  0  0  0  0  0  0  0
  -28.0430   -7.2880  -30.3390 N   0  0  0  0  0  0  0  0  0  0  0  0
  -27.9250   -7.8370  -29.0270 C   0  0  0  0  0  0  0  0  0  0  0  0
  -26.6790   -8.1050  -28.4700 C   0  0  0  0  0  0  0  0  0  0  0  0
  -26.5620   -8.6220  -27.1920 C   0  0  0  0  0  0  0  0  0  0  0  0
  -27.7070   -8.8710  -26.4650 C   0  0  0  0  0  0  0  0  0  0  0  0
  -29.0610   -8.0960  -28.2780 C   0  0  0  0  0  0  0  0  0  0  0  0
  -28.9600   -8.6130  -26.9950 C   0  0  0  0  0  0  0  0  0  0  0  0
  -29.0870  -10.3590  -31.1470 C   0  0  0  0  0  0  0  0  0  0  0  0
  -30.1110  -10.0040  -30.6020 O   0  0  0  0  0  0  0  0  0  0  0  0
  -28.8890  -11.8430  -31.2920 C   0  0  0  0  0  0  0  0  0  0  0  0
  -27.9100  -12.1190  -32.3190 C   0  0  0  0  0  0  0  0  0  0  0  0
  1  2  2  0
  1  3  1  0
  1  6  1  0
  2  4  1  0
  3 13  1  0
  4  5  2  0
  5  6  1  0
  6  7  1  0
 13 15  1  0
 13 14  2  0
  7  8  2  0
  7 11  1  0
  8  9  1  0
  9 10  2  0
 10 12  1  0
 11 12  2  0
 15 16  1  0
M  END
>  <name>  (497) 
Car Nac Nd0 Car Nac Nac Car Car Car Car Car Car Cs2 .=O Cs3 Cs3

>  <indices>  (497) 
[0, 1, 2]

>  <tasks>  (497) 
probe_placing close_aromatic_ring close_aromatic_ring close_aromatic_ring ring_built build_to_Nac close_aromatic_ring close_aromatic_ring close_aromatic_ring close_aromatic_ring close_aromatic_ring build_to_Nd0 build_DB_to_Cs2 build_SB_to_Cs2

>  <prot_clashes>  (497) 
7

>  <NBS phar>  (497) 
0.34

>  <NBS_non-phar>  (497) 
0.5044301748275757

>  <NBS>  (497) 
0.8444301748275758

>  <source_stage>  (497) 
scored

>  <source_iter>  (497) 
13

>  <source_parent_mol>  (497) 
1

>  <source_scenario>  (497) 
1 2 3 1 4 6 2 1 0 0 2 0 1

>  <source_rank_in_scored_call>  (497) 
54

>  <source_current_task>  (497) 
no_task

>  <scenario>  (497) 
1 2 3 1 4 6 2 1 0 0 2 0

>  <protected_ring_attachments>  (497) 
1,0,5,6|0,5,6;3,1,0,2|1,0,2;3,4,5,6|4,5,6;4,5,0,2|5,0,2

>  <current_task>  (497) 
no_task

>  <rotatable_bond_torsions>  (497) 
1,0,2,12;0,2,12,14;0,5,6,7

$$$$

     RDKit          3D

 16 17  0  0  0  0  0  0  0  0999 V2000
  -28.1070   -8.0370  -31.4580 C   0  0  0  0  0  0  0  0  0  0  0  0
  -28.1660   -7.1790  -32.5170 N   0  0  0  0  0  0  0  0  0  0  0  0
  -28.0880   -9.5200  -31.6840 N   0  0  0  0  0  0  0  0  0  0  0  0
  -28.1370   -5.9200  -32.0470 C   0  0  0  0  0  0  0  0  0  0  0  0
  -28.0610   -6.0120  -30.6920 N   0  0  0  0  0  0  0  0  0  0  0  0
  -28.0460   -7.2860  -30.3430 N   0  0  0  0  0  0  0  0  0  0  0  0
  -27.9280   -7.8340  -29.0300 C   0  0  0  0  0  0  0  0  0  0  0  0
  -26.6810   -8.1060  -28.4760 C   0  0  0  0  0  0  0  0  0  0  0  0
  -26.5630   -8.6220  -27.1980 C   0  0  0  0  0  0  0  0  0  0  0  0
  -27.7070   -8.8650  -26.4680 C   0  0  0  0  0  0  0  0  0  0  0  0
  -29.0630   -8.0860  -28.2780 C   0  0  0  0  0  0  0  0  0  0  0  0
  -28.9610   -8.6020  -26.9950 C   0  0  0  0  0  0  0  0  0  0  0  0
  -29.1060  -10.3530  -31.1440 C   0  0  0  0  0  0  0  0  0  0  0  0
  -30.1280   -9.9930  -30.5970 O   0  0  0  0  0  0  0  0  0  0  0  0
  -28.9160  -11.8380  -31.2880 C   0  0  0  0  0  0  0  0  0  0  0  0
  -27.9480  -12.1410  -32.3860 C   0  0  0  0  0  0  0  0  0  0  0  0
  1  2  2  0
  1  3  1  0
  1  6  1  0
  2  4  1  0
  3 13  1  0
  4  5  2  0
  5  6  1  0
  6  7  1  0
 13 15  1  0
 13 14  2  0
  7  8  2  0
  7 11  1  0
  8  9  1  0
  9 10  2  0
 10 12  1  0
 11 12  2  0
 15 16  1  0
M  END
>  <name>  (498) 
Car Nac Nd0 Car Nac Nac Car Car Car Car Car Car Cs2 .=O Cs3 Cs3

>  <indices>  (498) 
[0, 1, 2]

>  <tasks>  (498) 
probe_placing close_aromatic_ring close_aromatic_ring close_aromatic_ring ring_built build_to_Nac close_aromatic_ring close_aromatic_ring close_aromatic_ring close_aromatic_ring close_aromatic_ring build_to_Nd0 build_DB_to_Cs2 build_SB_to_Cs2

>  <prot_clashes>  (498) 
7

>  <NBS phar>  (498) 
0.34

>  <NBS_non-phar>  (498) 
0.5022534132003784

>  <NBS>  (498) 
0.8422534132003785

>  <source_stage>  (498) 
scored

>  <source_iter>  (498) 
13

>  <source_parent_mol>  (498) 
1

>  <source_scenario>  (498) 
1 2 3 1 4 6 2 1 0 0 2 0 1

>  <source_rank_in_scored_call>  (498) 
56

>  <source_current_task>  (498) 
no_task

>  <scenario>  (498) 
1 2 3 1 4 6 2 1 0 0 2 0

>  <protected_ring_attachments>  (498) 
1,0,5,6|0,5,6;3,1,0,2|1,0,2;3,4,5,6|4,5,6;4,5,0,2|5,0,2

>  <current_task>  (498) 
no_task

>  <rotatable_bond_torsions>  (498) 
1,0,2,12;0,2,12,14;0,5,6,7

$$$$

     RDKit          3D

 16 17  0  0  0  0  0  0  0  0999 V2000
  -28.1060   -8.0300  -31.4600 C   0  0  0  0  0  0  0  0  0  0  0  0
  -28.1550   -7.1720  -32.5190 N   0  0  0  0  0  0  0  0  0  0  0  0
  -28.1070   -9.5130  -31.6850 N   0  0  0  0  0  0  0  0  0  0  0  0
  -28.1090   -5.9130  -32.0500 C   0  0  0  0  0  0  0  0  0  0  0  0
  -28.0310   -6.0060  -30.6950 N   0  0  0  0  0  0  0  0  0  0  0  0
  -28.0320   -7.2790  -30.3460 N   0  0  0  0  0  0  0  0  0  0  0  0
  -27.9190   -7.8280  -29.0330 C   0  0  0  0  0  0  0  0  0  0  0  0
  -26.6750   -8.1170  -28.4810 C   0  0  0  0  0  0  0  0  0  0  0  0
  -26.5620   -8.6340  -27.2020 C   0  0  0  0  0  0  0  0  0  0  0  0
  -27.7080   -8.8620  -26.4710 C   0  0  0  0  0  0  0  0  0  0  0  0
  -29.0560   -8.0660  -28.2790 C   0  0  0  0  0  0  0  0  0  0  0  0
  -28.9590   -8.5830  -26.9950 C   0  0  0  0  0  0  0  0  0  0  0  0
  -29.1350  -10.3330  -31.1440 C   0  0  0  0  0  0  0  0  0  0  0  0
  -30.1500   -9.9590  -30.5950 O   0  0  0  0  0  0  0  0  0  0  0  0
  -28.9640  -11.8200  -31.2870 C   0  0  0  0  0  0  0  0  0  0  0  0
  -28.0170  -12.1570  -32.3760 C   0  0  0  0  0  0  0  0  0  0  0  0
  1  2  2  0
  1  3  1  0
  1  6  1  0
  2  4  1  0
  3 13  1  0
  4  5  2  0
  5  6  1  0
  6  7  1  0
 13 15  1  0
 13 14  2  0
  7  8  2  0
  7 11  1  0
  8  9  1  0
  9 10  2  0
 10 12  1  0
 11 12  2  0
 15 16  1  0
M  END
>  <name>  (499) 
Car Nac Nd0 Car Nac Nac Car Car Car Car Car Car Cs2 .=O Cs3 Cs3

>  <indices>  (499) 
[0, 1, 2]

>  <tasks>  (499) 
probe_placing close_aromatic_ring close_aromatic_ring close_aromatic_ring ring_built build_to_Nac close_aromatic_ring close_aromatic_ring close_aromatic_ring close_aromatic_ring close_aromatic_ring build_to_Nd0 build_DB_to_Cs2 build_SB_to_Cs2

>  <prot_clashes>  (499) 
7

>  <NBS phar>  (499) 
0.34

>  <NBS_non-phar>  (499) 
0.5005444884300232

>  <NBS>  (499) 
0.8405444884300233

>  <source_stage>  (499) 
scored

>  <source_iter>  (499) 
13

>  <source_parent_mol>  (499) 
1

>  <source_scenario>  (499) 
1 2 3 1 4 6 2 1 0 0 2 0 1

>  <source_rank_in_scored_call>  (499) 
57

>  <source_current_task>  (499) 
no_task

>  <scenario>  (499) 
1 2 3 1 4 6 2 1 0 0 2 0

>  <protected_ring_attachments>  (499) 
1,0,5,6|0,5,6;3,1,0,2|1,0,2;3,4,5,6|4,5,6;4,5,0,2|5,0,2

>  <current_task>  (499) 
no_task

>  <rotatable_bond_torsions>  (499) 
1,0,2,12;0,2,12,14;0,5,6,7

$$$$

     RDKit          3D

 16 17  0  0  0  0  0  0  0  0999 V2000
  -28.1080   -8.1060  -31.5250 C   0  0  0  0  0  0  0  0  0  0  0  0
  -28.1590   -7.0770  -32.4190 N   0  0  0  0  0  0  0  0  0  0  0  0
  -27.8960   -9.5130  -31.9990 N   0  0  0  0  0  0  0  0  0  0  0  0
  -28.3220   -5.9290  -31.7390 C   0  0  0  0  0  0  0  0  0  0  0  0
  -28.3710   -6.2620  -30.4200 N   0  0  0  0  0  0  0  0  0  0  0  0
  -28.2440   -7.5710  -30.2980 N   0  0  0  0  0  0  0  0  0  0  0  0
  -28.1950   -8.3370  -29.0950 C   0  0  0  0  0  0  0  0  0  0  0  0
  -26.9870   -8.5870  -28.4520 C   0  0  0  0  0  0  0  0  0  0  0  0
  -26.9380   -9.3160  -27.2770 C   0  0  0  0  0  0  0  0  0  0  0  0
  -28.1130   -9.7970  -26.7410 C   0  0  0  0  0  0  0  0  0  0  0  0
  -29.3630   -8.8310  -28.5380 C   0  0  0  0  0  0  0  0  0  0  0  0
  -29.3310   -9.5630  -27.3590 C   0  0  0  0  0  0  0  0  0  0  0  0
  -28.8600  -10.5250  -31.7360 C   0  0  0  0  0  0  0  0  0  0  0  0
  -29.9650  -10.3700  -31.2600 O   0  0  0  0  0  0  0  0  0  0  0  0
  -28.4860  -11.9330  -32.1110 C   0  0  0  0  0  0  0  0  0  0  0  0
  -27.6300  -12.6970  -31.0490 C   0  0  0  0  0  0  0  0  0  0  0  0
  1  2  2  0
  1  3  1  0
  1  6  1  0
  2  4  1  0
  3 13  1  0
  4  5  2  0
  5  6  1  0
  6  7  1  0
 13 15  1  0
 13 14  2  0
  7 11  1  0
  7  8  2  0
  8  9  1  0
  9 10  2  0
 10 12  1  0
 11 12  2  0
 15 16  1  0
M  END
>  <name>  (500) 
Car Nac Nd0 Car Nac Nac Car Car Car Car Car Car Cs2 .=O Cs3 Cs3

>  <indices>  (500) 
[0, 1, 2]

>  <tasks>  (500) 
probe_placing close_aromatic_ring close_aromatic_ring close_aromatic_ring ring_built build_to_Nac close_aromatic_ring close_aromatic_ring close_aromatic_ring close_aromatic_ring close_aromatic_ring build_to_Nd0 build_DB_to_Cs2 build_SB_to_Cs2

>  <prot_clashes>  (500) 
3

>  <NBS phar>  (500) 
0.22000000000000003

>  <NBS_non-phar>  (500) 
0.6004255414009094

>  <NBS>  (500) 
0.8204255414009094

>  <source_stage>  (500) 
scored

>  <source_iter>  (500) 
13

>  <source_parent_mol>  (500) 
1

>  <source_scenario>  (500) 
1 2 3 1 4 6 2 1 0 0 2 0 1

>  <source_rank_in_scored_call>  (500) 
64

>  <source_current_task>  (500) 
no_task

>  <scenario>  (500) 
1 2 3 1 4 6 2 1 0 0 2 0

>  <protected_ring_attachments>  (500) 
1,0,5,6|0,5,6;3,1,0,2|1,0,2;3,4,5,6|4,5,6;4,5,0,2|5,0,2

>  <current_task>  (500) 
no_task

>  <rotatable_bond_torsions>  (500) 
1,0,2,12;0,2,12,14;0,5,6,7

$$$$

     RDKit          3D

 16 17  0  0  0  0  0  0  0  0999 V2000
  -28.2430   -8.3870  -31.5630 C   0  0  0  0  0  0  0  0  0  0  0  0
  -28.2750   -7.3910  -32.4950 N   0  0  0  0  0  0  0  0  0  0  0  0
  -28.1350   -9.8210  -31.9910 N   0  0  0  0  0  0  0  0  0  0  0  0
  -28.3400   -6.2110  -31.8540 C   0  0  0  0  0  0  0  0  0  0  0  0
  -28.3470   -6.4910  -30.5220 N   0  0  0  0  0  0  0  0  0  0  0  0
  -28.2920   -7.7990  -30.3540 N   0  0  0  0  0  0  0  0  0  0  0  0
  -28.2320   -8.5230  -29.1240 C   0  0  0  0  0  0  0  0  0  0  0  0
  -27.0120   -8.8210  -28.5260 C   0  0  0  0  0  0  0  0  0  0  0  0
  -26.9520   -9.5080  -27.3260 C   0  0  0  0  0  0  0  0  0  0  0  0
  -28.1280   -9.8970  -26.7210 C   0  0  0  0  0  0  0  0  0  0  0  0
  -29.4000   -8.9250  -28.4980 C   0  0  0  0  0  0  0  0  0  0  0  0
  -29.3560   -9.6130  -27.2940 C   0  0  0  0  0  0  0  0  0  0  0  0
  -29.1430  -10.7620  -31.6460 C   0  0  0  0  0  0  0  0  0  0  0  0
  -30.2150  -10.5250  -31.1290 O   0  0  0  0  0  0  0  0  0  0  0  0
  -28.8700  -12.2030  -31.9810 C   0  0  0  0  0  0  0  0  0  0  0  0
  -27.6020  -12.7060  -31.2610 C   0  0  0  0  0  0  0  0  0  0  0  0
  1  2  2  0
  1  3  1  0
  1  6  1  0
  2  4  1  0
  3 13  1  0
  4  5  2  0
  5  6  1  0
  6  7  1  0
 13 15  1  0
 13 14  2  0
  7  8  2  0
  7 11  1  0
  8  9  1  0
  9 10  2  0
 10 12  1  0
 11 12  2  0
 15 16  1  0
M  END
>  <name>  (501) 
Car Nac Nd0 Car Nac Nac Car Car Car Car Car Car Cs2 .=O Cs3 Cs3

>  <indices>  (501) 
[0, 1, 2]

>  <tasks>  (501) 
probe_placing close_aromatic_ring close_aromatic_ring close_aromatic_ring ring_built build_to_Nac close_aromatic_ring close_aromatic_ring close_aromatic_ring close_aromatic_ring close_aromatic_ring build_to_Nd0 build_DB_to_Cs2 build_SB_to_Cs2

>  <prot_clashes>  (501) 
3

>  <NBS phar>  (501) 
0.2

>  <NBS_non-phar>  (501) 
0.5905849933624268

>  <NBS>  (501) 
0.7905849933624267

>  <source_stage>  (501) 
scored

>  <source_iter>  (501) 
13

>  <source_parent_mol>  (501) 
1

>  <source_scenario>  (501) 
1 2 3 1 4 6 2 1 0 0 2 0 1

>  <source_rank_in_scored_call>  (501) 
76

>  <source_current_task>  (501) 
no_task

>  <scenario>  (501) 
1 2 3 1 4 6 2 1 0 0 2 0

>  <protected_ring_attachments>  (501) 
1,0,5,6|0,5,6;3,1,0,2|1,0,2;3,4,5,6|4,5,6;4,5,0,2|5,0,2

>  <current_task>  (501) 
no_task

>  <rotatable_bond_torsions>  (501) 
1,0,2,12;0,2,12,14;0,5,6,7

$$$$

     RDKit          3D

 16 17  0  0  0  0  0  0  0  0999 V2000
  -28.1230   -8.1500  -31.4840 C   0  0  0  0  0  0  0  0  0  0  0  0
  -28.1200   -7.0930  -32.3460 N   0  0  0  0  0  0  0  0  0  0  0  0
  -28.0170   -9.5530  -32.0030 N   0  0  0  0  0  0  0  0  0  0  0  0
  -28.1920   -5.9580  -31.6300 C   0  0  0  0  0  0  0  0  0  0  0  0
  -28.2390   -6.3270  -30.3210 N   0  0  0  0  0  0  0  0  0  0  0  0
  -28.2010   -7.6450  -30.2390 N   0  0  0  0  0  0  0  0  0  0  0  0
  -28.1820   -8.4490  -29.0600 C   0  0  0  0  0  0  0  0  0  0  0  0
  -26.9820   -8.8000  -28.4500 C   0  0  0  0  0  0  0  0  0  0  0  0
  -26.9630   -9.5670  -27.2980 C   0  0  0  0  0  0  0  0  0  0  0  0
  -28.1580   -9.9830  -26.7530 C   0  0  0  0  0  0  0  0  0  0  0  0
  -29.3710   -8.8790  -28.4940 C   0  0  0  0  0  0  0  0  0  0  0  0
  -29.3670   -9.6470  -27.3390 C   0  0  0  0  0  0  0  0  0  0  0  0
  -29.0440  -10.5040  -31.7510 C   0  0  0  0  0  0  0  0  0  0  0  0
  -30.1270  -10.2900  -31.2480 O   0  0  0  0  0  0  0  0  0  0  0  0
  -28.7740  -11.9220  -32.1740 C   0  0  0  0  0  0  0  0  0  0  0  0
  -27.5860  -12.5850  -31.4020 C   0  0  0  0  0  0  0  0  0  0  0  0
  1  2  2  0
  1  3  1  0
  1  6  1  0
  2  4  1  0
  3 13  1  0
  4  5  2  0
  5  6  1  0
  6  7  1  0
 13 15  1  0
 13 14  2  0
  7 11  1  0
  7  8  2  0
  8  9  1  0
  9 10  2  0
 10 12  1  0
 11 12  2  0
 15 16  1  0
M  END
>  <name>  (502) 
Car Nac Nd0 Car Nac Nac Car Car Car Car Car Car Cs2 .=O Cs3 Cs3

>  <indices>  (502) 
[0, 1, 2]

>  <tasks>  (502) 
probe_placing close_aromatic_ring close_aromatic_ring close_aromatic_ring ring_built build_to_Nac close_aromatic_ring close_aromatic_ring close_aromatic_ring close_aromatic_ring close_aromatic_ring build_to_Nd0 build_DB_to_Cs2 build_SB_to_Cs2

>  <prot_clashes>  (502) 
4

>  <NBS phar>  (502) 
0.2

>  <NBS_non-phar>  (502) 
0.5869380235671997

>  <NBS>  (502) 
0.7869380235671997

>  <source_stage>  (502) 
scored

>  <source_iter>  (502) 
13

>  <source_parent_mol>  (502) 
1

>  <source_scenario>  (502) 
1 2 3 1 4 6 2 1 0 0 2 0 1

>  <source_rank_in_scored_call>  (502) 
80

>  <source_current_task>  (502) 
no_task

>  <scenario>  (502) 
1 2 3 1 4 6 2 1 0 0 2 0

>  <protected_ring_attachments>  (502) 
1,0,5,6|0,5,6;3,1,0,2|1,0,2;3,4,5,6|4,5,6;4,5,0,2|5,0,2

>  <current_task>  (502) 
no_task

>  <rotatable_bond_torsions>  (502) 
1,0,2,12;0,2,12,14;0,5,6,7

$$$$

     RDKit          3D

 16 17  0  0  0  0  0  0  0  0999 V2000
  -28.2850   -8.2160  -31.2760 C   0  0  0  0  0  0  0  0  0  0  0  0
  -28.4080   -7.1460  -32.1130 N   0  0  0  0  0  0  0  0  0  0  0  0
  -27.8870   -9.5580  -31.8150 N   0  0  0  0  0  0  0  0  0  0  0  0
  -28.7390   -6.0690  -31.3810 C   0  0  0  0  0  0  0  0  0  0  0  0
  -28.8180   -6.4850  -30.0880 N   0  0  0  0  0  0  0  0  0  0  0  0
  -28.5470   -7.7770  -30.0310 N   0  0  0  0  0  0  0  0  0  0  0  0
  -28.4730   -8.6070  -28.8720 C   0  0  0  0  0  0  0  0  0  0  0  0
  -27.2790   -8.7580  -28.1740 C   0  0  0  0  0  0  0  0  0  0  0  0
  -27.2090   -9.5490  -27.0400 C   0  0  0  0  0  0  0  0  0  0  0  0
  -28.3470  -10.1910  -26.6030 C   0  0  0  0  0  0  0  0  0  0  0  0
  -29.6040   -9.2620  -28.4140 C   0  0  0  0  0  0  0  0  0  0  0  0
  -29.5490  -10.0580  -27.2780 C   0  0  0  0  0  0  0  0  0  0  0  0
  -28.7400  -10.6860  -31.6660 C   0  0  0  0  0  0  0  0  0  0  0  0
  -29.8790  -10.6870  -31.2490 O   0  0  0  0  0  0  0  0  0  0  0  0
  -28.1860  -12.0170  -32.0960 C   0  0  0  0  0  0  0  0  0  0  0  0
  -30.7850  -10.7690  -26.7840 C   0  0  0  0  0  0  0  0  0  0  0  0
  1  2  2  0
  1  3  1  0
  1  6  1  0
  2  4  1  0
  3 13  1  0
  4  5  2  0
  5  6  1  0
  6  7  1  0
 13 15  1  0
 13 14  2  0
  7 11  1  0
  7  8  2  0
  8  9  1  0
  9 10  2  0
 10 12  1  0
 11 12  2  0
 12 16  1  0
M  END
>  <name>  (503) 
Car Nac Nd0 Car Nac Nac Car Car Car Car Car Car Cs2 .=O Cs3 Cs3

>  <indices>  (503) 
[0, 1, 2]

>  <tasks>  (503) 
probe_placing close_aromatic_ring close_aromatic_ring close_aromatic_ring ring_built build_to_Nac close_aromatic_ring close_aromatic_ring close_aromatic_ring close_aromatic_ring close_aromatic_ring build_to_Nd0 build_DB_to_Cs2 build_SB_to_Cs2

>  <prot_clashes>  (503) 
1

>  <NBS phar>  (503) 
0.22000000000000003

>  <NBS_non-phar>  (503) 
0.49211594462394714

>  <NBS>  (503) 
0.7121159446239471

>  <source_stage>  (503) 
scored

>  <source_iter>  (503) 
13

>  <source_parent_mol>  (503) 
1

>  <source_scenario>  (503) 
1 2 3 1 4 6 2 1 0 0 2 0 1

>  <source_rank_in_scored_call>  (503) 
110

>  <source_current_task>  (503) 
no_task

>  <scenario>  (503) 
1 2 3 1 4 6 2 1 0 0 2 0

>  <protected_ring_attachments>  (503) 
1,0,5,6|0,5,6;3,1,0,2|1,0,2;3,4,5,6|4,5,6;4,5,0,2|5,0,2

>  <current_task>  (503) 
no_task

>  <rotatable_bond_torsions>  (503) 
1,0,2,12;0,2,12,14;0,5,6,7

$$$$

     RDKit          3D

 18 20  0  0  0  0  0  0  0  0999 V2000
  -27.9920   -7.6290  -31.1280 C   0  0  0  0  0  0  0  0  0  0  0  0
  -27.8720   -7.2440  -32.4320 N   0  0  0  0  0  0  0  0  0  0  0  0
  -27.5530   -9.0000  -30.6980 N   0  0  0  0  0  0  0  0  0  0  0  0
  -28.3000   -5.9730  -32.5400 C   0  0  0  0  0  0  0  0  0  0  0  0
  -28.6820   -5.5850  -31.2930 N   0  0  0  0  0  0  0  0  0  0  0  0
  -28.4950   -6.5830  -30.4470 N   0  0  0  0  0  0  0  0  0  0  0  0
  -28.7530   -6.5280  -29.0930 C   0  0  0  0  0  0  0  0  0  0  0  0
  -29.2100   -5.4620  -28.5950 O   0  0  0  0  0  0  0  0  0  0  0  0
  -28.2550   -7.5050  -28.1390 C   0  0  0  0  0  0  0  0  0  0  0  0
  -28.9550   -8.2700  -27.2270 C   0  0  0  0  0  0  0  0  0  0  0  0
  -28.1390   -9.1050  -26.6220 O   0  0  0  0  0  0  0  0  0  0  0  0
  -26.9380   -7.9200  -28.0620 C   0  0  0  0  0  0  0  0  0  0  0  0
  -26.9300   -8.9170  -27.1000 C   0  0  0  0  0  0  0  0  0  0  0  0
  -27.8880  -10.4150  -30.7610 C   0  0  2  0  0  0  0  0  0  0  0  0
  -28.0850  -10.8390  -32.1980 C   0  0  0  0  0  0  0  0  0  0  0  0
  -28.8130  -12.1600  -32.1610 C   0  0  0  0  0  0  0  0  0  0  0  0
  -28.5340  -12.6530  -30.7670 C   0  0  0  0  0  0  0  0  0  0  0  0
  -28.7200  -11.3820  -29.9530 C   0  0  0  0  0  0  0  0  0  0  0  0
  1  2  2  0
  1  3  1  0
  1  6  1  0
  2  4  1  0
 14  3  1  6
  4  5  2  0
  5  6  1  0
  6  7  1  0
  7  8  2  0
  7  9  1  0
  9 12  1  0
  9 10  2  0
 10 11  1  0
 11 13  1  0
 12 13  2  0
 14 15  1  0
 14 18  1  0
 15 16  1  0
 16 17  1  0
 17 18  1  0
M  END
>  <name>  (504) 
Car Nac Nd0 Car Nac Nac Cs2 .=O Car Car O_a Car Car C3r C3r C3r C3r C3r

>  <indices>  (504) 
[0, 1, 2]

>  <tasks>  (504) 
probe_placing close_aromatic_ring close_aromatic_ring close_aromatic_ring ring_built build_to_Nac build_DB_to_Cs2 build_SB_to_Cs2 close_aromatic_ring close_aromatic_ring close_aromatic_ring close_aromatic_ring build_to_Nd0 close_aliphatic_ring close_aliphatic_ring close_aliphatic_ring

>  <prot_clashes>  (504) 
9

>  <NBS phar>  (504) 
0.13999999999999999

>  <NBS_non-phar>  (504) 
0.34017086029052734

>  <NBS>  (504) 
0.48017086029052736

>  <source_stage>  (504) 
scored

>  <source_iter>  (504) 
15

>  <source_parent_mol>  (504) 
2

>  <source_scenario>  (504) 
1 2 3 1 7 0 0 3 3 0 0 9 1 1 2

>  <source_rank_in_scored_call>  (504) 
6

>  <source_current_task>  (504) 
close_aliphatic_ring

>  <scenario>  (504) 
1 2 3 1 7 0 0 3 3 0 0 9 1 1

>  <protected_ring_attachments>  (504) 
3,1,0,2|1,0,2;4,5,0,2|5,0,2

>  <current_task>  (504) 
no_task

>  <rotatable_bond_torsions>  (504) 
1,0,2,13;0,2,13,14;0,5,6,8;5,6,8,9;2,13,14,15;13,14,15,16

$$$$

     RDKit          3D

 12 12  0  0  0  0  0  0  0  0999 V2000
  -28.3290   -6.5350  -31.2360 C   0  0  0  0  0  0  0  0  0  0  0  0
  -27.8590   -6.3810  -32.5070 N   0  0  0  0  0  0  0  0  0  0  0  0
  -28.8150   -7.8730  -30.7590 N   0  0  0  0  0  0  0  0  0  0  0  0
  -27.4590   -5.1080  -32.6630 C   0  0  0  0  0  0  0  0  0  0  0  0
  -27.6880   -4.4810  -31.4780 N   0  0  0  0  0  0  0  0  0  0  0  0
  -28.2120   -5.3410  -30.6230 N   0  0  0  0  0  0  0  0  0  0  0  0
  -28.5450   -5.0500  -29.3160 C   0  0  0  0  0  0  0  0  0  0  0  0
  -28.3600   -3.8790  -28.8760 O   0  0  0  0  0  0  0  0  0  0  0  0
  -29.2620   -5.9900  -28.3890 C   0  0  0  0  0  0  0  0  0  0  0  0
  -27.9960   -8.6020  -29.9850 C   0  0  0  0  0  0  0  0  0  0  0  0
  -26.9260   -8.3410  -29.4460 O   0  0  0  0  0  0  0  0  0  0  0  0
  -28.4630  -10.0450  -29.6650 C   0  0  0  0  0  0  0  0  0  0  0  0
  1  2  2  0
  1  3  1  0
  1  6  1  0
  2  4  1  0
  3 10  1  0
  4  5  2  0
  5  6  1  0
  6  7  1  0
  7  8  2  0
  7  9  1  0
 10 12  1  0
 10 11  2  0
M  END
>  <name>  (505) 
Car Nac Nd0 Car Nac Nac Cs2 .=O Cs3 Cs2 .=O Cs3

>  <indices>  (505) 
[0, 1, 2]

>  <tasks>  (505) 
probe_placing close_aromatic_ring close_aromatic_ring close_aromatic_ring ring_built build_to_Nac build_DB_to_Cs2 build_SB_to_Cs2 build_to_Nd0 build_DB_to_Cs2

>  <prot_clashes>  (505) 
7

>  <NBS phar>  (505) 
0.2

>  <NBS_non-phar>  (505) 
0.3444879452387492

>  <NBS>  (505) 
0.5444879452387492

>  <source_stage>  (505) 
scored

>  <source_iter>  (505) 
9

>  <source_parent_mol>  (505) 
0

>  <source_scenario>  (505) 
1 2 3 1 7 0 1 3 0

>  <source_rank_in_scored_call>  (505) 
3

>  <source_current_task>  (505) 
build_SB_to_Cs2

>  <scenario>  (505) 
1 2 3 1 7 0 1 3

>  <protected_ring_attachments>  (505) 
3,1,0,2|1,0,2;4,5,0,2|5,0,2

>  <current_task>  (505) 
no_task

>  <rotatable_bond_torsions>  (505) 
1,0,2,9;0,2,9,10;0,5,6,8

$$$$

     RDKit          3D

 15 16  0  0  0  0  0  0  0  0999 V2000
  -28.6730   -6.5300  -30.6680 C   0  0  0  0  0  0  0  0  0  0  0  0
  -28.0910   -6.7460  -31.8820 N   0  0  0  0  0  0  0  0  0  0  0  0
  -29.1880   -7.6830  -29.8540 N   0  0  0  0  0  0  0  0  0  0  0  0
  -27.6920   -5.5650  -32.3820 C   0  0  0  0  0  0  0  0  0  0  0  0
  -28.0350   -4.6200  -31.4610 N   0  0  0  0  0  0  0  0  0  0  0  0
  -28.6250   -5.2040  -30.4340 N   0  0  0  0  0  0  0  0  0  0  0  0
  -29.0790   -4.5470  -29.3080 C   0  0  0  0  0  0  0  0  0  0  0  0
  -29.6730   -5.0740  -28.3830 O   0  0  0  0  0  0  0  0  0  0  0  0
  -28.7320   -3.0620  -29.0610 C   0  0  0  0  0  0  0  0  0  0  0  0
  -29.0820   -8.9650  -30.1490 C   0  0  0  0  0  0  0  0  0  0  0  0
  -29.1900   -9.8900  -29.1320 C   0  0  0  0  0  0  0  0  0  0  0  0
  -29.0100  -11.2530  -29.3360 C   0  0  0  0  0  0  0  0  0  0  0  0
  -28.7090  -11.6540  -30.6370 C   0  0  0  0  0  0  0  0  0  0  0  0
  -28.6000  -10.7230  -31.6560 C   0  0  0  0  0  0  0  0  0  0  0  0
  -28.7830   -9.3740  -31.4310 C   0  0  0  0  0  0  0  0  0  0  0  0
  1  2  2  0
  1  6  1  0
  1  3  1  0
  2  4  1  0
  3 10  1  0
  4  5  2  0
  5  6  1  0
  6  7  1  0
  7  9  1  0
  7  8  2  0
 10 15  1  0
 10 11  2  0
 11 12  1  0
 12 13  2  0
 13 14  1  0
 14 15  2  0
M  END
>  <name>  (506) 
Car Nac Nd0 Car Nac Nac Cs2 .=O Cs3 Car Car Car Car Car Car

>  <indices>  (506) 
[0, 1, 2]

>  <tasks>  (506) 
probe_placing close_aromatic_ring close_aromatic_ring close_aromatic_ring ring_built build_to_Nac build_DB_to_Cs2 build_SB_to_Cs2 build_to_Nd0 close_aromatic_ring close_aromatic_ring close_aromatic_ring close_aromatic_ring

>  <prot_clashes>  (506) 
3

>  <NBS phar>  (506) 
0.1

>  <NBS_non-phar>  (506) 
0.46402702331542967

>  <NBS>  (506) 
0.5640270233154296

>  <source_stage>  (506) 
scored

>  <source_iter>  (506) 
12

>  <source_parent_mol>  (506) 
0

>  <source_scenario>  (506) 
1 2 3 1 7 1 0 1 2 7 1 0

>  <source_rank_in_scored_call>  (506) 
0

>  <source_current_task>  (506) 
close_aromatic_ring

>  <scenario>  (506) 
1 2 3 1 7 1 0 1 2 7 1

>  <protected_ring_attachments>  (506) 
3,1,0,2|1,0,2;4,5,0,2|5,0,2

>  <current_task>  (506) 
no_task

>  <rotatable_bond_torsions>  (506) 
1,0,2,9;0,2,9,10;0,5,6,8;2,9,10,11;10,11,12,13

$$$$

     RDKit          3D

 16 17  0  0  0  0  0  0  0  0999 V2000
  -28.6650   -6.4680  -30.7030 C   0  0  0  0  0  0  0  0  0  0  0  0
  -28.0960   -6.6700  -31.9260 N   0  0  0  0  0  0  0  0  0  0  0  0
  -29.1840   -7.6290  -29.9030 N   0  0  0  0  0  0  0  0  0  0  0  0
  -27.6890   -5.4860  -32.4110 C   0  0  0  0  0  0  0  0  0  0  0  0
  -28.0150   -4.5520  -31.4720 N   0  0  0  0  0  0  0  0  0  0  0  0
  -28.6010   -5.1460  -30.4490 N   0  0  0  0  0  0  0  0  0  0  0  0
  -29.0390   -4.5030  -29.3090 C   0  0  0  0  0  0  0  0  0  0  0  0
  -29.6300   -5.0390  -28.3870 O   0  0  0  0  0  0  0  0  0  0  0  0
  -28.6750   -3.0260  -29.0410 C   0  0  0  0  0  0  0  0  0  0  0  0
  -29.0940   -8.9070  -30.2190 C   0  0  0  0  0  0  0  0  0  0  0  0
  -29.2020   -9.8470  -29.2160 C   0  0  0  0  0  0  0  0  0  0  0  0
  -29.0380  -11.2080  -29.4430 C   0  0  0  0  0  0  0  0  0  0  0  0
  -28.7520  -11.5910  -30.7530 C   0  0  0  0  0  0  0  0  0  0  0  0
  -28.6420  -10.6450  -31.7580 C   0  0  0  0  0  0  0  0  0  0  0  0
  -28.8100   -9.2980  -31.5100 C   0  0  0  0  0  0  0  0  0  0  0  0
  -28.7860   -2.1030  -30.2570 C   0  0  0  0  0  0  0  0  0  0  0  0
  1  2  2  0
  1  6  1  0
  1  3  1  0
  2  4  1  0
  3 10  1  0
  4  5  2  0
  5  6  1  0
  6  7  1  0
  7  9  1  0
  7  8  2  0
 10 15  1  0
 10 11  2  0
 11 12  1  0
 12 13  2  0
 13 14  1  0
 14 15  2  0
  9 16  1  0
M  END
>  <name>  (507) 
Car Nac Nd0 Car Nac Nac Cs2 .=O Cs3 Car Car Car Car Car Car Cs3

>  <indices>  (507) 
[0, 1, 2]

>  <tasks>  (507) 
probe_placing close_aromatic_ring close_aromatic_ring close_aromatic_ring ring_built build_to_Nac build_DB_to_Cs2 build_SB_to_Cs2 build_to_Nd0 close_aromatic_ring close_aromatic_ring close_aromatic_ring close_aromatic_ring close_aromatic_ring

>  <prot_clashes>  (507) 
4

>  <NBS phar>  (507) 
0.12

>  <NBS_non-phar>  (507) 
0.5087385773658752

>  <NBS>  (507) 
0.6287385773658752

>  <source_stage>  (507) 
scored

>  <source_iter>  (507) 
13

>  <source_parent_mol>  (507) 
0

>  <source_scenario>  (507) 
1 2 3 1 7 1 0 1 2 7 1 0 0

>  <source_rank_in_scored_call>  (507) 
4

>  <source_current_task>  (507) 
no_task

>  <scenario>  (507) 
1 2 3 1 7 1 0 1 2 7 1 0

>  <protected_ring_attachments>  (507) 
3,1,0,2|1,0,2;4,5,0,2|5,0,2;11,10,9,2|10,9,2;13,14,9,2|14,9,2

>  <current_task>  (507) 
no_task

>  <rotatable_bond_torsions>  (507) 
1,0,2,9;0,2,9,10;0,5,6,8

$$$$

     RDKit          3D

 16 17  0  0  0  0  0  0  0  0999 V2000
  -28.6790   -6.5090  -30.6790 C   0  0  0  0  0  0  0  0  0  0  0  0
  -28.0760   -6.6960  -31.8880 N   0  0  0  0  0  0  0  0  0  0  0  0
  -29.1880   -7.6830  -29.8920 N   0  0  0  0  0  0  0  0  0  0  0  0
  -27.6880   -5.5010  -32.3620 C   0  0  0  0  0  0  0  0  0  0  0  0
  -28.0580   -4.5770  -31.4300 N   0  0  0  0  0  0  0  0  0  0  0  0
  -28.6540   -5.1870  -30.4220 N   0  0  0  0  0  0  0  0  0  0  0  0
  -29.1340   -4.5560  -29.2920 C   0  0  0  0  0  0  0  0  0  0  0  0
  -29.7330   -5.1070  -28.3850 O   0  0  0  0  0  0  0  0  0  0  0  0
  -28.8130   -3.0700  -29.0150 C   0  0  0  0  0  0  0  0  0  0  0  0
  -29.0590   -8.9580  -30.2070 C   0  0  0  0  0  0  0  0  0  0  0  0
  -29.1680   -9.9020  -29.2080 C   0  0  0  0  0  0  0  0  0  0  0  0
  -28.9650  -11.2590  -29.4320 C   0  0  0  0  0  0  0  0  0  0  0  0
  -28.6390  -11.6330  -30.7350 C   0  0  0  0  0  0  0  0  0  0  0  0
  -28.5290  -10.6830  -31.7360 C   0  0  0  0  0  0  0  0  0  0  0  0
  -28.7350   -9.3410  -31.4910 C   0  0  0  0  0  0  0  0  0  0  0  0
  -27.5600   -2.9130  -28.1660 C   0  0  0  0  0  0  0  0  0  0  0  0
  1  2  2  0
  1  6  1  0
  1  3  1  0
  2  4  1  0
  3 10  1  0
  4  5  2  0
  5  6  1  0
  6  7  1  0
  7  9  1  0
  7  8  2  0
 10 15  1  0
 10 11  2  0
 11 12  1  0
 12 13  2  0
 13 14  1  0
 14 15  2  0
  9 16  1  0
M  END
>  <name>  (508) 
Car Nac Nd0 Car Nac Nac Cs2 .=O Cs3 Car Car Car Car Car Car Cs3

>  <indices>  (508) 
[0, 1, 2]

>  <tasks>  (508) 
probe_placing close_aromatic_ring close_aromatic_ring close_aromatic_ring ring_built build_to_Nac build_DB_to_Cs2 build_SB_to_Cs2 build_to_Nd0 close_aromatic_ring close_aromatic_ring close_aromatic_ring close_aromatic_ring close_aromatic_ring

>  <prot_clashes>  (508) 
4

>  <NBS phar>  (508) 
0.1

>  <NBS_non-phar>  (508) 
0.5099439024925232

>  <NBS>  (508) 
0.6099439024925232

>  <source_stage>  (508) 
scored

>  <source_iter>  (508) 
13

>  <source_parent_mol>  (508) 
0

>  <source_scenario>  (508) 
1 2 3 1 7 1 0 1 2 7 1 0 0

>  <source_rank_in_scored_call>  (508) 
14

>  <source_current_task>  (508) 
no_task

>  <scenario>  (508) 
1 2 3 1 7 1 0 1 2 7 1 0

>  <protected_ring_attachments>  (508) 
3,1,0,2|1,0,2;4,5,0,2|5,0,2;11,10,9,2|10,9,2;13,14,9,2|14,9,2

>  <current_task>  (508) 
no_task

>  <rotatable_bond_torsions>  (508) 
1,0,2,9;0,2,9,10;0,5,6,8

$$$$

     RDKit          3D

 16 17  0  0  0  0  0  0  0  0999 V2000
  -28.6760   -6.5030  -30.6570 C   0  0  0  0  0  0  0  0  0  0  0  0
  -28.0820   -6.6810  -31.8710 N   0  0  0  0  0  0  0  0  0  0  0  0
  -29.1880   -7.6820  -29.8800 N   0  0  0  0  0  0  0  0  0  0  0  0
  -27.6880   -5.4830  -32.3350 C   0  0  0  0  0  0  0  0  0  0  0  0
  -28.0460   -4.5670  -31.3910 N   0  0  0  0  0  0  0  0  0  0  0  0
  -28.6400   -5.1840  -30.3860 N   0  0  0  0  0  0  0  0  0  0  0  0
  -29.1090   -4.5620  -29.2460 C   0  0  0  0  0  0  0  0  0  0  0  0
  -29.7060   -5.1190  -28.3410 O   0  0  0  0  0  0  0  0  0  0  0  0
  -28.7750   -3.0820  -28.9540 C   0  0  0  0  0  0  0  0  0  0  0  0
  -29.0700   -8.9550  -30.2090 C   0  0  0  0  0  0  0  0  0  0  0  0
  -29.1790   -9.9090  -29.2200 C   0  0  0  0  0  0  0  0  0  0  0  0
  -28.9870  -11.2640  -29.4600 C   0  0  0  0  0  0  0  0  0  0  0  0
  -28.6720  -11.6260  -30.7690 C   0  0  0  0  0  0  0  0  0  0  0  0
  -28.5620  -10.6660  -31.7610 C   0  0  0  0  0  0  0  0  0  0  0  0
  -28.7570   -9.3260  -31.5000 C   0  0  0  0  0  0  0  0  0  0  0  0
  -27.3750   -2.8180  -28.4810 C   0  0  0  0  0  0  0  0  0  0  0  0
  1  2  2  0
  1  6  1  0
  1  3  1  0
  2  4  1  0
  3 10  1  0
  4  5  2  0
  5  6  1  0
  6  7  1  0
  7  9  1  0
  7  8  2  0
 10 15  1  0
 10 11  2  0
 11 12  1  0
 12 13  2  0
 13 14  1  0
 14 15  2  0
  9 16  1  0
M  END
>  <name>  (509) 
Car Nac Nd0 Car Nac Nac Cs2 .=O Cs3 Car Car Car Car Car Car Cs3

>  <indices>  (509) 
[0, 1, 2]

>  <tasks>  (509) 
probe_placing close_aromatic_ring close_aromatic_ring close_aromatic_ring ring_built build_to_Nac build_DB_to_Cs2 build_SB_to_Cs2 build_to_Nd0 close_aromatic_ring close_aromatic_ring close_aromatic_ring close_aromatic_ring close_aromatic_ring

>  <prot_clashes>  (509) 
4

>  <NBS phar>  (509) 
0.1

>  <NBS_non-phar>  (509) 
0.5017258524894714

>  <NBS>  (509) 
0.6017258524894714

>  <source_stage>  (509) 
scored

>  <source_iter>  (509) 
13

>  <source_parent_mol>  (509) 
0

>  <source_scenario>  (509) 
1 2 3 1 7 1 0 1 2 7 1 0 0

>  <source_rank_in_scored_call>  (509) 
16

>  <source_current_task>  (509) 
no_task

>  <scenario>  (509) 
1 2 3 1 7 1 0 1 2 7 1 0

>  <protected_ring_attachments>  (509) 
3,1,0,2|1,0,2;4,5,0,2|5,0,2;11,10,9,2|10,9,2;13,14,9,2|14,9,2

>  <current_task>  (509) 
no_task

>  <rotatable_bond_torsions>  (509) 
1,0,2,9;0,2,9,10;0,5,6,8

$$$$

     RDKit          3D

 16 17  0  0  0  0  0  0  0  0999 V2000
  -28.6650   -6.4990  -30.6990 C   0  0  0  0  0  0  0  0  0  0  0  0
  -28.1090   -6.7180  -31.9250 N   0  0  0  0  0  0  0  0  0  0  0  0
  -29.1870   -7.6470  -29.8830 N   0  0  0  0  0  0  0  0  0  0  0  0
  -27.6970   -5.5410  -32.4250 C   0  0  0  0  0  0  0  0  0  0  0  0
  -28.0070   -4.5960  -31.4930 N   0  0  0  0  0  0  0  0  0  0  0  0
  -28.5890   -5.1750  -30.4590 N   0  0  0  0  0  0  0  0  0  0  0  0
  -29.0120   -4.5170  -29.3210 C   0  0  0  0  0  0  0  0  0  0  0  0
  -29.5990   -5.0390  -28.3890 O   0  0  0  0  0  0  0  0  0  0  0  0
  -28.6340   -3.0400  -29.0720 C   0  0  0  0  0  0  0  0  0  0  0  0
  -29.1090   -8.9290  -30.1870 C   0  0  0  0  0  0  0  0  0  0  0  0
  -29.2160   -9.8580  -29.1740 C   0  0  0  0  0  0  0  0  0  0  0  0
  -29.0640  -11.2230  -29.3890 C   0  0  0  0  0  0  0  0  0  0  0  0
  -28.7930  -11.6210  -30.6970 C   0  0  0  0  0  0  0  0  0  0  0  0
  -28.6850  -10.6860  -31.7130 C   0  0  0  0  0  0  0  0  0  0  0  0
  -28.8400   -9.3360  -31.4770 C   0  0  0  0  0  0  0  0  0  0  0  0
  -29.1860  -12.2210  -28.2650 C   0  0  0  0  0  0  0  0  0  0  0  0
  1  2  2  0
  1  6  1  0
  1  3  1  0
  2  4  1  0
  3 10  1  0
  4  5  2  0
  5  6  1  0
  6  7  1  0
  7  9  1  0
  7  8  2  0
 10 15  1  0
 10 11  2  0
 11 12  1  0
 12 13  2  0
 12 16  1  0
 13 14  1  0
 14 15  2  0
M  END
>  <name>  (510) 
Car Nac Nd0 Car Nac Nac Cs2 .=O Cs3 Car Car Car Car Car Car Cs3

>  <indices>  (510) 
[0, 1, 2]

>  <tasks>  (510) 
probe_placing close_aromatic_ring close_aromatic_ring close_aromatic_ring ring_built build_to_Nac build_DB_to_Cs2 build_SB_to_Cs2 build_to_Nd0 close_aromatic_ring close_aromatic_ring close_aromatic_ring close_aromatic_ring close_aromatic_ring

>  <prot_clashes>  (510) 
3

>  <NBS phar>  (510) 
0.1

>  <NBS_non-phar>  (510) 
0.46521827578544617

>  <NBS>  (510) 
0.5652182757854461

>  <source_stage>  (510) 
scored

>  <source_iter>  (510) 
13

>  <source_parent_mol>  (510) 
0

>  <source_scenario>  (510) 
1 2 3 1 7 1 0 1 2 7 1 0 0

>  <source_rank_in_scored_call>  (510) 
52

>  <source_current_task>  (510) 
no_task

>  <scenario>  (510) 
1 2 3 1 7 1 0 1 2 7 1 0

>  <protected_ring_attachments>  (510) 
3,1,0,2|1,0,2;4,5,0,2|5,0,2;11,10,9,2|10,9,2;13,14,9,2|14,9,2

>  <current_task>  (510) 
no_task

>  <rotatable_bond_torsions>  (510) 
1,0,2,9;0,2,9,10;0,5,6,8

$$$$

     RDKit          3D

 16 17  0  0  0  0  0  0  0  0999 V2000
  -28.6630   -6.5060  -30.6970 C   0  0  0  0  0  0  0  0  0  0  0  0
  -28.1310   -6.7350  -31.9310 N   0  0  0  0  0  0  0  0  0  0  0  0
  -29.1490   -7.6490  -29.8520 N   0  0  0  0  0  0  0  0  0  0  0  0
  -27.7480   -5.5610  -32.4580 C   0  0  0  0  0  0  0  0  0  0  0  0
  -28.0510   -4.6060  -31.5330 N   0  0  0  0  0  0  0  0  0  0  0  0
  -28.6010   -5.1780  -30.4780 N   0  0  0  0  0  0  0  0  0  0  0  0
  -29.0070   -4.5090  -29.3410 C   0  0  0  0  0  0  0  0  0  0  0  0
  -29.5660   -5.0250  -28.3880 O   0  0  0  0  0  0  0  0  0  0  0  0
  -28.6460   -3.0230  -29.1220 C   0  0  0  0  0  0  0  0  0  0  0  0
  -29.0600   -8.9340  -30.1390 C   0  0  0  0  0  0  0  0  0  0  0  0
  -29.1300   -9.8490  -29.1100 C   0  0  0  0  0  0  0  0  0  0  0  0
  -28.9630  -11.2150  -29.3080 C   0  0  0  0  0  0  0  0  0  0  0  0
  -28.7160  -11.6290  -30.6160 C   0  0  0  0  0  0  0  0  0  0  0  0
  -28.6440  -10.7080  -31.6470 C   0  0  0  0  0  0  0  0  0  0  0  0
  -28.8140   -9.3560  -31.4280 C   0  0  0  0  0  0  0  0  0  0  0  0
  -27.6760   -2.8110  -27.9910 C   0  0  0  0  0  0  0  0  0  0  0  0
  1  2  2  0
  1  6  1  0
  1  3  1  0
  2  4  1  0
  3 10  1  0
  4  5  2  0
  5  6  1  0
  6  7  1  0
  7  9  1  0
  7  8  2  0
 10 15  1  0
 10 11  2  0
 11 12  1  0
 12 13  2  0
 13 14  1  0
 14 15  2  0
  9 16  1  0
M  END
>  <name>  (511) 
Car Nac Nd0 Car Nac Nac Cs2 .=O Cs3 Car Car Car Car Car Car Cs3

>  <indices>  (511) 
[0, 1, 2]

>  <tasks>  (511) 
probe_placing close_aromatic_ring close_aromatic_ring close_aromatic_ring ring_built build_to_Nac build_DB_to_Cs2 build_SB_to_Cs2 build_to_Nd0 close_aromatic_ring close_aromatic_ring close_aromatic_ring close_aromatic_ring close_aromatic_ring

>  <prot_clashes>  (511) 
4

>  <NBS phar>  (511) 
0.12

>  <NBS_non-phar>  (511) 
0.44459062814712524

>  <NBS>  (511) 
0.5645906281471252

>  <source_stage>  (511) 
scored

>  <source_iter>  (511) 
13

>  <source_parent_mol>  (511) 
0

>  <source_scenario>  (511) 
1 2 3 1 7 1 0 1 2 7 1 0 0

>  <source_rank_in_scored_call>  (511) 
54

>  <source_current_task>  (511) 
no_task

>  <scenario>  (511) 
1 2 3 1 7 1 0 1 2 7 1 0

>  <protected_ring_attachments>  (511) 
3,1,0,2|1,0,2;4,5,0,2|5,0,2;11,10,9,2|10,9,2;13,14,9,2|14,9,2

>  <current_task>  (511) 
no_task

>  <rotatable_bond_torsions>  (511) 
1,0,2,9;0,2,9,10;0,5,6,8

$$$$

     RDKit          3D

 16 17  0  0  0  0  0  0  0  0999 V2000
  -28.6330   -6.3670  -30.7210 C   0  0  0  0  0  0  0  0  0  0  0  0
  -28.0760   -6.6390  -31.9360 N   0  0  0  0  0  0  0  0  0  0  0  0
  -29.1570   -7.4790  -29.8570 N   0  0  0  0  0  0  0  0  0  0  0  0
  -27.6620   -5.4860  -32.4850 C   0  0  0  0  0  0  0  0  0  0  0  0
  -27.9700   -4.5010  -31.5930 N   0  0  0  0  0  0  0  0  0  0  0  0
  -28.5540   -5.0350  -30.5360 N   0  0  0  0  0  0  0  0  0  0  0  0
  -28.9740   -4.3290  -29.4280 C   0  0  0  0  0  0  0  0  0  0  0  0
  -29.5630   -4.8090  -28.4740 O   0  0  0  0  0  0  0  0  0  0  0  0
  -28.5930   -2.8430  -29.2410 C   0  0  0  0  0  0  0  0  0  0  0  0
  -29.0820   -8.7730  -30.1070 C   0  0  0  0  0  0  0  0  0  0  0  0
  -29.1920   -9.6580  -29.0550 C   0  0  0  0  0  0  0  0  0  0  0  0
  -29.0430  -11.0310  -29.2130 C   0  0  0  0  0  0  0  0  0  0  0  0
  -28.7730  -11.4850  -30.5030 C   0  0  0  0  0  0  0  0  0  0  0  0
  -28.6630  -10.5940  -31.5570 C   0  0  0  0  0  0  0  0  0  0  0  0
  -28.8140   -9.2340  -31.3780 C   0  0  0  0  0  0  0  0  0  0  0  0
  -28.3220   -2.5560  -27.8320 C   0  0  0  0  0  0  0  0  0  0  0  0
  1  2  2  0
  1  6  1  0
  1  3  1  0
  2  4  1  0
  3 10  1  0
  4  5  2  0
  5  6  1  0
  6  7  1  0
  7  9  1  0
  7  8  2  0
 10 15  1  0
 10 11  2  0
 11 12  1  0
 12 13  2  0
 13 14  1  0
 14 15  2  0
  9 16  1  0
M  END
>  <name>  (512) 
Car Nac Nd0 Car Nac Nac Cs2 .=O Cs3 Car Car Car Car Car Car Cs3

>  <indices>  (512) 
[0, 1, 2]

>  <tasks>  (512) 
probe_placing close_aromatic_ring close_aromatic_ring close_aromatic_ring ring_built build_to_Nac build_DB_to_Cs2 build_SB_to_Cs2 build_to_Nd0 close_aromatic_ring close_aromatic_ring close_aromatic_ring close_aromatic_ring close_aromatic_ring

>  <prot_clashes>  (512) 
3

>  <NBS phar>  (512) 
0.12

>  <NBS_non-phar>  (512) 
0.4354710578918457

>  <NBS>  (512) 
0.5554710578918457

>  <source_stage>  (512) 
scored

>  <source_iter>  (512) 
13

>  <source_parent_mol>  (512) 
0

>  <source_scenario>  (512) 
1 2 3 1 7 1 0 1 2 7 1 0 0

>  <source_rank_in_scored_call>  (512) 
74

>  <source_current_task>  (512) 
no_task

>  <scenario>  (512) 
1 2 3 1 7 1 0 1 2 7 1 0

>  <protected_ring_attachments>  (512) 
3,1,0,2|1,0,2;4,5,0,2|5,0,2;11,10,9,2|10,9,2;13,14,9,2|14,9,2

>  <current_task>  (512) 
no_task

>  <rotatable_bond_torsions>  (512) 
1,0,2,9;0,2,9,10;0,5,6,8

$$$$

     RDKit          3D

 16 17  0  0  0  0  0  0  0  0999 V2000
  -28.6640   -6.3570  -30.7060 C   0  0  0  0  0  0  0  0  0  0  0  0
  -28.0980   -6.6170  -31.9190 N   0  0  0  0  0  0  0  0  0  0  0  0
  -29.1790   -7.4780  -29.8490 N   0  0  0  0  0  0  0  0  0  0  0  0
  -27.6940   -5.4560  -32.4610 C   0  0  0  0  0  0  0  0  0  0  0  0
  -28.0180   -4.4790  -31.5670 N   0  0  0  0  0  0  0  0  0  0  0  0
  -28.6010   -5.0240  -30.5150 N   0  0  0  0  0  0  0  0  0  0  0  0
  -29.0370   -4.3270  -29.4060 C   0  0  0  0  0  0  0  0  0  0  0  0
  -29.6240   -4.8190  -28.4580 O   0  0  0  0  0  0  0  0  0  0  0  0
  -28.6740   -2.8380  -29.2110 C   0  0  0  0  0  0  0  0  0  0  0  0
  -29.0880   -8.7700  -30.1040 C   0  0  0  0  0  0  0  0  0  0  0  0
  -29.1920   -9.6610  -29.0560 C   0  0  0  0  0  0  0  0  0  0  0  0
  -29.0260  -11.0310  -29.2180 C   0  0  0  0  0  0  0  0  0  0  0  0
  -28.7440  -11.4760  -30.5090 C   0  0  0  0  0  0  0  0  0  0  0  0
  -28.6390  -10.5800  -31.5590 C   0  0  0  0  0  0  0  0  0  0  0  0
  -28.8070   -9.2220  -31.3750 C   0  0  0  0  0  0  0  0  0  0  0  0
  -28.7590   -2.4870  -27.7920 C   0  0  0  0  0  0  0  0  0  0  0  0
  1  2  2  0
  1  6  1  0
  1  3  1  0
  2  4  1  0
  3 10  1  0
  4  5  2  0
  5  6  1  0
  6  7  1  0
  7  9  1  0
  7  8  2  0
 10 15  1  0
 10 11  2  0
 11 12  1  0
 12 13  2  0
 13 14  1  0
 14 15  2  0
  9 16  1  0
M  END
>  <name>  (513) 
Car Nac Nd0 Car Nac Nac Cs2 .=O Cs3 Car Car Car Car Car Car Cs3

>  <indices>  (513) 
[0, 1, 2]

>  <tasks>  (513) 
probe_placing close_aromatic_ring close_aromatic_ring close_aromatic_ring ring_built build_to_Nac build_DB_to_Cs2 build_SB_to_Cs2 build_to_Nd0 close_aromatic_ring close_aromatic_ring close_aromatic_ring close_aromatic_ring close_aromatic_ring

>  <prot_clashes>  (513) 
4

>  <NBS phar>  (513) 
0.12

>  <NBS_non-phar>  (513) 
0.4322699010372162

>  <NBS>  (513) 
0.5522699010372162

>  <source_stage>  (513) 
scored

>  <source_iter>  (513) 
13

>  <source_parent_mol>  (513) 
0

>  <source_scenario>  (513) 
1 2 3 1 7 1 0 1 2 7 1 0 0

>  <source_rank_in_scored_call>  (513) 
78

>  <source_current_task>  (513) 
no_task

>  <scenario>  (513) 
1 2 3 1 7 1 0 1 2 7 1 0

>  <protected_ring_attachments>  (513) 
3,1,0,2|1,0,2;4,5,0,2|5,0,2;11,10,9,2|10,9,2;13,14,9,2|14,9,2

>  <current_task>  (513) 
no_task

>  <rotatable_bond_torsions>  (513) 
1,0,2,9;0,2,9,10;0,5,6,8

$$$$

     RDKit          3D

 16 17  0  0  0  0  0  0  0  0999 V2000
  -28.6230   -6.6270  -30.7350 C   0  0  0  0  0  0  0  0  0  0  0  0
  -28.0910   -6.8110  -31.9770 N   0  0  0  0  0  0  0  0  0  0  0  0
  -29.0520   -7.8050  -29.9070 N   0  0  0  0  0  0  0  0  0  0  0  0
  -27.7630   -5.6120  -32.4850 C   0  0  0  0  0  0  0  0  0  0  0  0
  -28.0990   -4.6870  -31.5410 N   0  0  0  0  0  0  0  0  0  0  0  0
  -28.6160   -5.3020  -30.4920 N   0  0  0  0  0  0  0  0  0  0  0  0
  -29.0420   -4.6710  -29.3400 C   0  0  0  0  0  0  0  0  0  0  0  0
  -29.5700   -5.2280  -28.3930 O   0  0  0  0  0  0  0  0  0  0  0  0
  -28.7430   -3.1750  -29.0970 C   0  0  0  0  0  0  0  0  0  0  0  0
  -28.9090   -9.0800  -30.2180 C   0  0  0  0  0  0  0  0  0  0  0  0
  -28.9320  -10.0150  -29.2050 C   0  0  0  0  0  0  0  0  0  0  0  0
  -28.7080  -11.3680  -29.4290 C   0  0  0  0  0  0  0  0  0  0  0  0
  -28.4530  -11.7480  -30.7470 C   0  0  0  0  0  0  0  0  0  0  0  0
  -28.4300  -10.8070  -31.7610 C   0  0  0  0  0  0  0  0  0  0  0  0
  -28.6560   -9.4680  -31.5160 C   0  0  0  0  0  0  0  0  0  0  0  0
  -29.2120   -9.5510  -27.7970 C   0  0  0  0  0  0  0  0  0  0  0  0
  1  2  2  0
  1  6  1  0
  1  3  1  0
  2  4  1  0
  3 10  1  0
  4  5  2  0
  5  6  1  0
  6  7  1  0
  7  9  1  0
  7  8  2  0
 10 15  1  0
 10 11  2  0
 11 12  1  0
 11 16  1  0
 12 13  2  0
 13 14  1  0
 14 15  2  0
M  END
>  <name>  (514) 
Car Nac Nd0 Car Nac Nac Cs2 .=O Cs3 Car Car Car Car Car Car Cs3

>  <indices>  (514) 
[0, 1, 2]

>  <tasks>  (514) 
probe_placing close_aromatic_ring close_aromatic_ring close_aromatic_ring ring_built build_to_Nac build_DB_to_Cs2 build_SB_to_Cs2 build_to_Nd0 close_aromatic_ring close_aromatic_ring close_aromatic_ring close_aromatic_ring close_aromatic_ring

>  <prot_clashes>  (514) 
3

>  <NBS phar>  (514) 
0.0

>  <NBS_non-phar>  (514) 
0.5517477989196777

>  <NBS>  (514) 
0.5517477989196777

>  <source_stage>  (514) 
scored

>  <source_iter>  (514) 
13

>  <source_parent_mol>  (514) 
0

>  <source_scenario>  (514) 
1 2 3 1 7 1 0 1 2 7 1 0 0

>  <source_rank_in_scored_call>  (514) 
80

>  <source_current_task>  (514) 
no_task

>  <scenario>  (514) 
1 2 3 1 7 1 0 1 2 7 1 0

>  <protected_ring_attachments>  (514) 
3,1,0,2|1,0,2;4,5,0,2|5,0,2;11,10,9,2|10,9,2;13,14,9,2|14,9,2

>  <current_task>  (514) 
no_task

>  <rotatable_bond_torsions>  (514) 
1,0,2,9;0,2,9,10;0,5,6,8

$$$$

     RDKit          3D

 16 17  0  0  0  0  0  0  0  0999 V2000
  -28.6730   -6.5100  -30.6930 C   0  0  0  0  0  0  0  0  0  0  0  0
  -28.0880   -6.7100  -31.9080 N   0  0  0  0  0  0  0  0  0  0  0  0
  -29.1870   -7.6740  -29.8940 N   0  0  0  0  0  0  0  0  0  0  0  0
  -27.6900   -5.5220  -32.3930 C   0  0  0  0  0  0  0  0  0  0  0  0
  -28.0370   -4.5890  -31.4610 N   0  0  0  0  0  0  0  0  0  0  0  0
  -28.6280   -5.1870  -30.4420 N   0  0  0  0  0  0  0  0  0  0  0  0
  -29.0860   -4.5450  -29.3090 C   0  0  0  0  0  0  0  0  0  0  0  0
  -29.6810   -5.0850  -28.3920 O   0  0  0  0  0  0  0  0  0  0  0  0
  -28.7420   -3.0630  -29.0430 C   0  0  0  0  0  0  0  0  0  0  0  0
  -29.0780   -8.9520  -30.2050 C   0  0  0  0  0  0  0  0  0  0  0  0
  -29.1870   -9.8900  -29.2000 C   0  0  0  0  0  0  0  0  0  0  0  0
  -29.0040  -11.2500  -29.4200 C   0  0  0  0  0  0  0  0  0  0  0  0
  -28.6990  -11.6340  -30.7250 C   0  0  0  0  0  0  0  0  0  0  0  0
  -28.5900  -10.6910  -31.7320 C   0  0  0  0  0  0  0  0  0  0  0  0
  -28.7760   -9.3450  -31.4910 C   0  0  0  0  0  0  0  0  0  0  0  0
  -28.4870  -13.0940  -31.0440 C   0  0  0  0  0  0  0  0  0  0  0  0
  1  2  2  0
  1  6  1  0
  1  3  1  0
  2  4  1  0
  3 10  1  0
  4  5  2  0
  5  6  1  0
  6  7  1  0
  7  9  1  0
  7  8  2  0
 10 15  1  0
 10 11  2  0
 11 12  1  0
 12 13  2  0
 13 14  1  0
 13 16  1  0
 14 15  2  0
M  END
>  <name>  (515) 
Car Nac Nd0 Car Nac Nac Cs2 .=O Cs3 Car Car Car Car Car Car Cs3

>  <indices>  (515) 
[0, 1, 2]

>  <tasks>  (515) 
probe_placing close_aromatic_ring close_aromatic_ring close_aromatic_ring ring_built build_to_Nac build_DB_to_Cs2 build_SB_to_Cs2 build_to_Nd0 close_aromatic_ring close_aromatic_ring close_aromatic_ring close_aromatic_ring close_aromatic_ring

>  <prot_clashes>  (515) 
3

>  <NBS phar>  (515) 
0.1

>  <NBS_non-phar>  (515) 
0.4432682394981384

>  <NBS>  (515) 
0.5432682394981384

>  <source_stage>  (515) 
scored

>  <source_iter>  (515) 
13

>  <source_parent_mol>  (515) 
0

>  <source_scenario>  (515) 
1 2 3 1 7 1 0 1 2 7 1 0 0

>  <source_rank_in_scored_call>  (515) 
88

>  <source_current_task>  (515) 
no_task

>  <scenario>  (515) 
1 2 3 1 7 1 0 1 2 7 1 0

>  <protected_ring_attachments>  (515) 
3,1,0,2|1,0,2;4,5,0,2|5,0,2;11,10,9,2|10,9,2;13,14,9,2|14,9,2

>  <current_task>  (515) 
no_task

>  <rotatable_bond_torsions>  (515) 
1,0,2,9;0,2,9,10;0,5,6,8

$$$$

     RDKit          3D

 16 17  0  0  0  0  0  0  0  0999 V2000
  -28.6420   -6.4340  -30.7280 C   0  0  0  0  0  0  0  0  0  0  0  0
  -28.1210   -6.6630  -31.9670 N   0  0  0  0  0  0  0  0  0  0  0  0
  -29.1810   -7.5710  -29.9050 N   0  0  0  0  0  0  0  0  0  0  0  0
  -27.6850   -5.4970  -32.4700 C   0  0  0  0  0  0  0  0  0  0  0  0
  -27.9430   -4.5480  -31.5260 N   0  0  0  0  0  0  0  0  0  0  0  0
  -28.5190   -5.1150  -30.4820 N   0  0  0  0  0  0  0  0  0  0  0  0
  -28.8940   -4.4510  -29.3310 C   0  0  0  0  0  0  0  0  0  0  0  0
  -29.4760   -4.9600  -28.3880 O   0  0  0  0  0  0  0  0  0  0  0  0
  -28.4640   -2.9880  -29.0830 C   0  0  0  0  0  0  0  0  0  0  0  0
  -29.1500   -8.8530  -30.2180 C   0  0  0  0  0  0  0  0  0  0  0  0
  -29.2630   -9.7840  -29.2070 C   0  0  0  0  0  0  0  0  0  0  0  0
  -29.1590  -11.1510  -29.4320 C   0  0  0  0  0  0  0  0  0  0  0  0
  -28.9310  -11.5500  -30.7490 C   0  0  0  0  0  0  0  0  0  0  0  0
  -28.8180  -10.6130  -31.7620 C   0  0  0  0  0  0  0  0  0  0  0  0
  -28.9240   -9.2600  -31.5150 C   0  0  0  0  0  0  0  0  0  0  0  0
  -28.8530   -2.4610  -27.7390 C   0  0  0  0  0  0  0  0  0  0  0  0
  1  2  2  0
  1  6  1  0
  1  3  1  0
  2  4  1  0
  3 10  1  0
  4  5  2  0
  5  6  1  0
  6  7  1  0
  7  9  1  0
  7  8  2  0
 10 15  1  0
 10 11  2  0
 11 12  1  0
 12 13  2  0
 13 14  1  0
 14 15  2  0
  9 16  1  0
M  END
>  <name>  (516) 
Car Nac Nd0 Car Nac Nac Cs2 .=O Cs3 Car Car Car Car Car Car Cs3

>  <indices>  (516) 
[0, 1, 2]

>  <tasks>  (516) 
probe_placing close_aromatic_ring close_aromatic_ring close_aromatic_ring ring_built build_to_Nac build_DB_to_Cs2 build_SB_to_Cs2 build_to_Nd0 close_aromatic_ring close_aromatic_ring close_aromatic_ring close_aromatic_ring close_aromatic_ring

>  <prot_clashes>  (516) 
5

>  <NBS phar>  (516) 
0.1

>  <NBS_non-phar>  (516) 
0.44139352440834045

>  <NBS>  (516) 
0.5413935244083404

>  <source_stage>  (516) 
scored

>  <source_iter>  (516) 
13

>  <source_parent_mol>  (516) 
0

>  <source_scenario>  (516) 
1 2 3 1 7 1 0 1 2 7 1 0 0

>  <source_rank_in_scored_call>  (516) 
91

>  <source_current_task>  (516) 
no_task

>  <scenario>  (516) 
1 2 3 1 7 1 0 1 2 7 1 0

>  <protected_ring_attachments>  (516) 
3,1,0,2|1,0,2;4,5,0,2|5,0,2;11,10,9,2|10,9,2;13,14,9,2|14,9,2

>  <current_task>  (516) 
no_task

>  <rotatable_bond_torsions>  (516) 
1,0,2,9;0,2,9,10;0,5,6,8

$$$$

     RDKit          3D

 16 17  0  0  0  0  0  0  0  0999 V2000
  -28.5940   -6.4030  -30.6860 C   0  0  0  0  0  0  0  0  0  0  0  0
  -28.1460   -6.7190  -31.9350 N   0  0  0  0  0  0  0  0  0  0  0  0
  -29.1470   -7.4680  -29.7820 N   0  0  0  0  0  0  0  0  0  0  0  0
  -27.6780   -5.6040  -32.5180 C   0  0  0  0  0  0  0  0  0  0  0  0
  -27.8410   -4.5970  -31.6130 N   0  0  0  0  0  0  0  0  0  0  0  0
  -28.3930   -5.0820  -30.5150 N   0  0  0  0  0  0  0  0  0  0  0  0
  -28.6770   -4.3430  -29.3840 C   0  0  0  0  0  0  0  0  0  0  0  0
  -29.2370   -4.7730  -28.3900 O   0  0  0  0  0  0  0  0  0  0  0  0
  -28.1640   -2.8940  -29.2320 C   0  0  0  0  0  0  0  0  0  0  0  0
  -29.1960   -8.7630  -30.0290 C   0  0  0  0  0  0  0  0  0  0  0  0
  -29.3050   -9.6360  -28.9680 C   0  0  0  0  0  0  0  0  0  0  0  0
  -29.2800  -11.0170  -29.1270 C   0  0  0  0  0  0  0  0  0  0  0  0
  -29.1380  -11.4920  -30.4300 C   0  0  0  0  0  0  0  0  0  0  0  0
  -29.0270  -10.6130  -31.4940 C   0  0  0  0  0  0  0  0  0  0  0  0
  -29.0540   -9.2450  -31.3130 C   0  0  0  0  0  0  0  0  0  0  0  0
  -29.2030   -1.9990  -28.6360 C   0  0  0  0  0  0  0  0  0  0  0  0
  1  2  2  0
  1  6  1  0
  1  3  1  0
  2  4  1  0
  3 10  1  0
  4  5  2  0
  5  6  1  0
  6  7  1  0
  7  9  1  0
  7  8  2  0
 10 15  1  0
 10 11  2  0
 11 12  1  0
 12 13  2  0
 13 14  1  0
 14 15  2  0
  9 16  1  0
M  END
>  <name>  (517) 
Car Nac Nd0 Car Nac Nac Cs2 .=O Cs3 Car Car Car Car Car Car Cs3

>  <indices>  (517) 
[0, 1, 2]

>  <tasks>  (517) 
probe_placing close_aromatic_ring close_aromatic_ring close_aromatic_ring ring_built build_to_Nac build_DB_to_Cs2 build_SB_to_Cs2 build_to_Nd0 close_aromatic_ring close_aromatic_ring close_aromatic_ring close_aromatic_ring close_aromatic_ring

>  <prot_clashes>  (517) 
6

>  <NBS phar>  (517) 
0.1

>  <NBS_non-phar>  (517) 
0.44007423520088196

>  <NBS>  (517) 
0.5400742352008819

>  <source_stage>  (517) 
scored

>  <source_iter>  (517) 
13

>  <source_parent_mol>  (517) 
0

>  <source_scenario>  (517) 
1 2 3 1 7 1 0 1 2 7 1 0 0

>  <source_rank_in_scored_call>  (517) 
92

>  <source_current_task>  (517) 
no_task

>  <scenario>  (517) 
1 2 3 1 7 1 0 1 2 7 1 0

>  <protected_ring_attachments>  (517) 
3,1,0,2|1,0,2;4,5,0,2|5,0,2;11,10,9,2|10,9,2;13,14,9,2|14,9,2

>  <current_task>  (517) 
no_task

>  <rotatable_bond_torsions>  (517) 
1,0,2,9;0,2,9,10;0,5,6,8

$$$$

     RDKit          3D

 16 17  0  0  0  0  0  0  0  0999 V2000
  -28.6340   -6.3490  -30.7080 C   0  0  0  0  0  0  0  0  0  0  0  0
  -28.0910   -6.5780  -31.9370 N   0  0  0  0  0  0  0  0  0  0  0  0
  -29.1830   -7.4870  -29.8940 N   0  0  0  0  0  0  0  0  0  0  0  0
  -27.6500   -5.4110  -32.4350 C   0  0  0  0  0  0  0  0  0  0  0  0
  -27.9280   -4.4610  -31.4960 N   0  0  0  0  0  0  0  0  0  0  0  0
  -28.5210   -5.0290  -30.4620 N   0  0  0  0  0  0  0  0  0  0  0  0
  -28.9190   -4.3650  -29.3190 C   0  0  0  0  0  0  0  0  0  0  0  0
  -29.5150   -4.8750  -28.3860 O   0  0  0  0  0  0  0  0  0  0  0  0
  -28.4990   -2.9000  -29.0650 C   0  0  0  0  0  0  0  0  0  0  0  0
  -29.1420   -8.7690  -30.2040 C   0  0  0  0  0  0  0  0  0  0  0  0
  -29.2690   -9.6990  -29.1940 C   0  0  0  0  0  0  0  0  0  0  0  0
  -29.1560  -11.0670  -29.4160 C   0  0  0  0  0  0  0  0  0  0  0  0
  -28.9030  -11.4660  -30.7280 C   0  0  0  0  0  0  0  0  0  0  0  0
  -28.7750  -10.5300  -31.7400 C   0  0  0  0  0  0  0  0  0  0  0  0
  -28.8910   -9.1770  -31.4970 C   0  0  0  0  0  0  0  0  0  0  0  0
  -29.1700   -2.0010  -30.0990 C   0  0  0  0  0  0  0  0  0  0  0  0
  1  2  2  0
  1  6  1  0
  1  3  1  0
  2  4  1  0
  3 10  1  0
  4  5  2  0
  5  6  1  0
  6  7  1  0
  7  9  1  0
  7  8  2  0
 10 15  1  0
 10 11  2  0
 11 12  1  0
 12 13  2  0
 13 14  1  0
 14 15  2  0
  9 16  1  0
M  END
>  <name>  (518) 
Car Nac Nd0 Car Nac Nac Cs2 .=O Cs3 Car Car Car Car Car Car Cs3

>  <indices>  (518) 
[0, 1, 2]

>  <tasks>  (518) 
probe_placing close_aromatic_ring close_aromatic_ring close_aromatic_ring ring_built build_to_Nac build_DB_to_Cs2 build_SB_to_Cs2 build_to_Nd0 close_aromatic_ring close_aromatic_ring close_aromatic_ring close_aromatic_ring close_aromatic_ring

>  <prot_clashes>  (518) 
4

>  <NBS phar>  (518) 
0.12

>  <NBS_non-phar>  (518) 
0.41271814703941345

>  <NBS>  (518) 
0.5327181470394134

>  <source_stage>  (518) 
scored

>  <source_iter>  (518) 
13

>  <source_parent_mol>  (518) 
0

>  <source_scenario>  (518) 
1 2 3 1 7 1 0 1 2 7 1 0 0

>  <source_rank_in_scored_call>  (518) 
95

>  <source_current_task>  (518) 
no_task

>  <scenario>  (518) 
1 2 3 1 7 1 0 1 2 7 1 0

>  <protected_ring_attachments>  (518) 
3,1,0,2|1,0,2;4,5,0,2|5,0,2;11,10,9,2|10,9,2;13,14,9,2|14,9,2

>  <current_task>  (518) 
no_task

>  <rotatable_bond_torsions>  (518) 
1,0,2,9;0,2,9,10;0,5,6,8

$$$$

     RDKit          3D

 16 17  0  0  0  0  0  0  0  0999 V2000
  -28.6510   -6.3530  -30.7160 C   0  0  0  0  0  0  0  0  0  0  0  0
  -28.1210   -6.5840  -31.9500 N   0  0  0  0  0  0  0  0  0  0  0  0
  -29.1890   -7.4890  -29.8920 N   0  0  0  0  0  0  0  0  0  0  0  0
  -27.6880   -5.4170  -32.4560 C   0  0  0  0  0  0  0  0  0  0  0  0
  -27.9570   -4.4660  -31.5170 N   0  0  0  0  0  0  0  0  0  0  0  0
  -28.5360   -5.0320  -30.4740 N   0  0  0  0  0  0  0  0  0  0  0  0
  -28.9220   -4.3650  -29.3280 C   0  0  0  0  0  0  0  0  0  0  0  0
  -29.5070   -4.8730  -28.3870 O   0  0  0  0  0  0  0  0  0  0  0  0
  -28.5010   -2.8990  -29.0830 C   0  0  0  0  0  0  0  0  0  0  0  0
  -29.1500   -8.7710  -30.2000 C   0  0  0  0  0  0  0  0  0  0  0  0
  -29.2640   -9.6990  -29.1860 C   0  0  0  0  0  0  0  0  0  0  0  0
  -29.1510  -11.0670  -29.4060 C   0  0  0  0  0  0  0  0  0  0  0  0
  -28.9130  -11.4700  -30.7190 C   0  0  0  0  0  0  0  0  0  0  0  0
  -28.7980  -10.5360  -31.7350 C   0  0  0  0  0  0  0  0  0  0  0  0
  -28.9130   -9.1820  -31.4940 C   0  0  0  0  0  0  0  0  0  0  0  0
  -29.1880   -1.9100  -30.0750 C   0  0  0  0  0  0  0  0  0  0  0  0
  1  2  2  0
  1  6  1  0
  1  3  1  0
  2  4  1  0
  3 10  1  0
  4  5  2  0
  5  6  1  0
  6  7  1  0
  7  9  1  0
  7  8  2  0
 10 15  1  0
 10 11  2  0
 11 12  1  0
 12 13  2  0
 13 14  1  0
 14 15  2  0
  9 16  1  0
M  END
>  <name>  (519) 
Car Nac Nd0 Car Nac Nac Cs2 .=O Cs3 Car Car Car Car Car Car Cs3

>  <indices>  (519) 
[0, 1, 2]

>  <tasks>  (519) 
probe_placing close_aromatic_ring close_aromatic_ring close_aromatic_ring ring_built build_to_Nac build_DB_to_Cs2 build_SB_to_Cs2 build_to_Nd0 close_aromatic_ring close_aromatic_ring close_aromatic_ring close_aromatic_ring close_aromatic_ring

>  <prot_clashes>  (519) 
5

>  <NBS phar>  (519) 
0.12

>  <NBS_non-phar>  (519) 
0.41129183769226074

>  <NBS>  (519) 
0.5312918376922607

>  <source_stage>  (519) 
scored

>  <source_iter>  (519) 
13

>  <source_parent_mol>  (519) 
0

>  <source_scenario>  (519) 
1 2 3 1 7 1 0 1 2 7 1 0 0

>  <source_rank_in_scored_call>  (519) 
97

>  <source_current_task>  (519) 
no_task

>  <scenario>  (519) 
1 2 3 1 7 1 0 1 2 7 1 0

>  <protected_ring_attachments>  (519) 
3,1,0,2|1,0,2;4,5,0,2|5,0,2;11,10,9,2|10,9,2;13,14,9,2|14,9,2

>  <current_task>  (519) 
no_task

>  <rotatable_bond_torsions>  (519) 
1,0,2,9;0,2,9,10;0,5,6,8

$$$$

     RDKit          3D

 16 17  0  0  0  0  0  0  0  0999 V2000
  -28.6460   -6.2710  -30.7040 C   0  0  0  0  0  0  0  0  0  0  0  0
  -28.1010   -6.4850  -31.9350 N   0  0  0  0  0  0  0  0  0  0  0  0
  -29.1770   -7.4210  -29.8960 N   0  0  0  0  0  0  0  0  0  0  0  0
  -27.6770   -5.3090  -32.4260 C   0  0  0  0  0  0  0  0  0  0  0  0
  -27.9670   -4.3690  -31.4820 N   0  0  0  0  0  0  0  0  0  0  0  0
  -28.5500   -4.9510  -30.4500 N   0  0  0  0  0  0  0  0  0  0  0  0
  -28.9550   -4.2990  -29.3030 C   0  0  0  0  0  0  0  0  0  0  0  0
  -29.5420   -4.8230  -28.3720 O   0  0  0  0  0  0  0  0  0  0  0  0
  -28.5550   -2.8300  -29.0410 C   0  0  0  0  0  0  0  0  0  0  0  0
  -29.1190   -8.7000  -30.2140 C   0  0  0  0  0  0  0  0  0  0  0  0
  -29.2310   -9.6380  -29.2090 C   0  0  0  0  0  0  0  0  0  0  0  0
  -29.1000  -11.0030  -29.4390 C   0  0  0  0  0  0  0  0  0  0  0  0
  -28.8440  -11.3910  -30.7530 C   0  0  0  0  0  0  0  0  0  0  0  0
  -28.7300  -10.4470  -31.7600 C   0  0  0  0  0  0  0  0  0  0  0  0
  -28.8650   -9.0970  -31.5090 C   0  0  0  0  0  0  0  0  0  0  0  0
  -29.1830   -1.9160  -30.1100 C   0  0  0  0  0  0  0  0  0  0  0  0
  1  2  2  0
  1  6  1  0
  1  3  1  0
  2  4  1  0
  3 10  1  0
  4  5  2  0
  5  6  1  0
  6  7  1  0
  7  9  1  0
  7  8  2  0
 10 15  1  0
 10 11  2  0
 11 12  1  0
 12 13  2  0
 13 14  1  0
 14 15  2  0
  9 16  1  0
M  END
>  <name>  (520) 
Car Nac Nd0 Car Nac Nac Cs2 .=O Cs3 Car Car Car Car Car Car Cs3

>  <indices>  (520) 
[0, 1, 2]

>  <tasks>  (520) 
probe_placing close_aromatic_ring close_aromatic_ring close_aromatic_ring ring_built build_to_Nac build_DB_to_Cs2 build_SB_to_Cs2 build_to_Nd0 close_aromatic_ring close_aromatic_ring close_aromatic_ring close_aromatic_ring close_aromatic_ring

>  <prot_clashes>  (520) 
3

>  <NBS phar>  (520) 
0.12

>  <NBS_non-phar>  (520) 
0.408195823431015

>  <NBS>  (520) 
0.528195823431015

>  <source_stage>  (520) 
scored

>  <source_iter>  (520) 
13

>  <source_parent_mol>  (520) 
0

>  <source_scenario>  (520) 
1 2 3 1 7 1 0 1 2 7 1 0 0

>  <source_rank_in_scored_call>  (520) 
100

>  <source_current_task>  (520) 
no_task

>  <scenario>  (520) 
1 2 3 1 7 1 0 1 2 7 1 0

>  <protected_ring_attachments>  (520) 
3,1,0,2|1,0,2;4,5,0,2|5,0,2;11,10,9,2|10,9,2;13,14,9,2|14,9,2

>  <current_task>  (520) 
no_task

>  <rotatable_bond_torsions>  (520) 
1,0,2,9;0,2,9,10;0,5,6,8

$$$$

     RDKit          3D

 16 17  0  0  0  0  0  0  0  0999 V2000
  -28.5590   -6.2020  -30.6860 C   0  0  0  0  0  0  0  0  0  0  0  0
  -28.0770   -6.5410  -31.9150 N   0  0  0  0  0  0  0  0  0  0  0  0
  -29.1380   -7.2500  -29.7790 N   0  0  0  0  0  0  0  0  0  0  0  0
  -27.5900   -5.4360  -32.5040 C   0  0  0  0  0  0  0  0  0  0  0  0
  -27.7790   -4.4140  -31.6230 N   0  0  0  0  0  0  0  0  0  0  0  0
  -28.3620   -4.8780  -30.5330 N   0  0  0  0  0  0  0  0  0  0  0  0
  -28.6780   -4.1180  -29.4240 C   0  0  0  0  0  0  0  0  0  0  0  0
  -29.2650   -4.5310  -28.4380 O   0  0  0  0  0  0  0  0  0  0  0  0
  -28.1670   -2.6670  -29.2830 C   0  0  0  0  0  0  0  0  0  0  0  0
  -29.1820   -8.5500  -30.0040 C   0  0  0  0  0  0  0  0  0  0  0  0
  -29.3220   -9.4040  -28.9300 C   0  0  0  0  0  0  0  0  0  0  0  0
  -29.2940  -10.7870  -29.0630 C   0  0  0  0  0  0  0  0  0  0  0  0
  -29.1150  -11.2850  -30.3530 C   0  0  0  0  0  0  0  0  0  0  0  0
  -28.9730  -10.4250  -31.4290 C   0  0  0  0  0  0  0  0  0  0  0  0
  -29.0040   -9.0540  -31.2740 C   0  0  0  0  0  0  0  0  0  0  0  0
  -29.2200   -1.6060  -29.4240 C   0  0  0  0  0  0  0  0  0  0  0  0
  1  2  2  0
  1  6  1  0
  1  3  1  0
  2  4  1  0
  3 10  1  0
  4  5  2  0
  5  6  1  0
  6  7  1  0
  7  9  1  0
  7  8  2  0
 10 15  1  0
 10 11  2  0
 11 12  1  0
 12 13  2  0
 13 14  1  0
 14 15  2  0
  9 16  1  0
M  END
>  <name>  (521) 
Car Nac Nd0 Car Nac Nac Cs2 .=O Cs3 Car Car Car Car Car Car Cs3

>  <indices>  (521) 
[0, 1, 2]

>  <tasks>  (521) 
probe_placing close_aromatic_ring close_aromatic_ring close_aromatic_ring ring_built build_to_Nac build_DB_to_Cs2 build_SB_to_Cs2 build_to_Nd0 close_aromatic_ring close_aromatic_ring close_aromatic_ring close_aromatic_ring close_aromatic_ring

>  <prot_clashes>  (521) 
5

>  <NBS phar>  (521) 
0.1

>  <NBS_non-phar>  (521) 
0.4129107892513275

>  <NBS>  (521) 
0.5129107892513275

>  <source_stage>  (521) 
scored

>  <source_iter>  (521) 
13

>  <source_parent_mol>  (521) 
0

>  <source_scenario>  (521) 
1 2 3 1 7 1 0 1 2 7 1 0 0

>  <source_rank_in_scored_call>  (521) 
102

>  <source_current_task>  (521) 
no_task

>  <scenario>  (521) 
1 2 3 1 7 1 0 1 2 7 1 0

>  <protected_ring_attachments>  (521) 
3,1,0,2|1,0,2;4,5,0,2|5,0,2;11,10,9,2|10,9,2;13,14,9,2|14,9,2

>  <current_task>  (521) 
no_task

>  <rotatable_bond_torsions>  (521) 
1,0,2,9;0,2,9,10;0,5,6,8

$$$$

     RDKit          3D

 16 17  0  0  0  0  0  0  0  0999 V2000
  -28.5750   -6.1830  -30.6200 C   0  0  0  0  0  0  0  0  0  0  0  0
  -28.1310   -6.5460  -31.8570 N   0  0  0  0  0  0  0  0  0  0  0  0
  -29.1310   -7.2140  -29.6780 N   0  0  0  0  0  0  0  0  0  0  0  0
  -27.6600   -5.4530  -32.4800 C   0  0  0  0  0  0  0  0  0  0  0  0
  -27.8180   -4.4150  -31.6110 N   0  0  0  0  0  0  0  0  0  0  0  0
  -28.3700   -4.8580  -30.4960 N   0  0  0  0  0  0  0  0  0  0  0  0
  -28.6500   -4.0780  -29.3910 C   0  0  0  0  0  0  0  0  0  0  0  0
  -29.2080   -4.4710  -28.3820 O   0  0  0  0  0  0  0  0  0  0  0  0
  -28.1300   -2.6270  -29.2920 C   0  0  0  0  0  0  0  0  0  0  0  0
  -29.1850   -8.5170  -29.8790 C   0  0  0  0  0  0  0  0  0  0  0  0
  -29.2950   -9.3510  -28.7870 C   0  0  0  0  0  0  0  0  0  0  0  0
  -29.2760  -10.7370  -28.8970 C   0  0  0  0  0  0  0  0  0  0  0  0
  -29.1370  -11.2580  -30.1830 C   0  0  0  0  0  0  0  0  0  0  0  0
  -29.0250  -10.4170  -31.2770 C   0  0  0  0  0  0  0  0  0  0  0  0
  -29.0470   -9.0440  -31.1450 C   0  0  0  0  0  0  0  0  0  0  0  0
  -29.1950   -1.6260  -28.9250 C   0  0  0  0  0  0  0  0  0  0  0  0
  1  2  2  0
  1  6  1  0
  1  3  1  0
  2  4  1  0
  3 10  1  0
  4  5  2  0
  5  6  1  0
  6  7  1  0
  7  9  1  0
  7  8  2  0
 10 15  1  0
 10 11  2  0
 11 12  1  0
 12 13  2  0
 13 14  1  0
 14 15  2  0
  9 16  1  0
M  END
>  <name>  (522) 
Car Nac Nd0 Car Nac Nac Cs2 .=O Cs3 Car Car Car Car Car Car Cs3

>  <indices>  (522) 
[0, 1, 2]

>  <tasks>  (522) 
probe_placing close_aromatic_ring close_aromatic_ring close_aromatic_ring ring_built build_to_Nac build_DB_to_Cs2 build_SB_to_Cs2 build_to_Nd0 close_aromatic_ring close_aromatic_ring close_aromatic_ring close_aromatic_ring close_aromatic_ring

>  <prot_clashes>  (522) 
5

>  <NBS phar>  (522) 
0.1

>  <NBS_non-phar>  (522) 
0.39452946186065674

>  <NBS>  (522) 
0.4945294618606567

>  <source_stage>  (522) 
scored

>  <source_iter>  (522) 
13

>  <source_parent_mol>  (522) 
0

>  <source_scenario>  (522) 
1 2 3 1 7 1 0 1 2 7 1 0 0

>  <source_rank_in_scored_call>  (522) 
110

>  <source_current_task>  (522) 
no_task

>  <scenario>  (522) 
1 2 3 1 7 1 0 1 2 7 1 0

>  <protected_ring_attachments>  (522) 
3,1,0,2|1,0,2;4,5,0,2|5,0,2;11,10,9,2|10,9,2;13,14,9,2|14,9,2

>  <current_task>  (522) 
no_task

>  <rotatable_bond_torsions>  (522) 
1,0,2,9;0,2,9,10;0,5,6,8

$$$$

     RDKit          3D

 16 17  0  0  0  0  0  0  0  0999 V2000
  -28.6340   -6.4700  -30.7310 C   0  0  0  0  0  0  0  0  0  0  0  0
  -28.1450   -6.7250  -31.9780 N   0  0  0  0  0  0  0  0  0  0  0  0
  -29.1830   -7.5840  -29.8860 N   0  0  0  0  0  0  0  0  0  0  0  0
  -27.6910   -5.5750  -32.5030 C   0  0  0  0  0  0  0  0  0  0  0  0
  -27.9060   -4.6100  -31.5640 N   0  0  0  0  0  0  0  0  0  0  0  0
  -28.4740   -5.1520  -30.5020 N   0  0  0  0  0  0  0  0  0  0  0  0
  -28.8080   -4.4670  -29.3510 C   0  0  0  0  0  0  0  0  0  0  0  0
  -29.3820   -4.9510  -28.3910 O   0  0  0  0  0  0  0  0  0  0  0  0
  -28.3370   -3.0130  -29.1280 C   0  0  0  0  0  0  0  0  0  0  0  0
  -29.1910   -8.8700  -30.1850 C   0  0  0  0  0  0  0  0  0  0  0  0
  -29.3050   -9.7870  -29.1630 C   0  0  0  0  0  0  0  0  0  0  0  0
  -29.2400  -11.1590  -29.3750 C   0  0  0  0  0  0  0  0  0  0  0  0
  -29.0490  -11.5770  -30.6920 C   0  0  0  0  0  0  0  0  0  0  0  0
  -28.9330  -10.6530  -31.7170 C   0  0  0  0  0  0  0  0  0  0  0  0
  -29.0020   -9.2950  -31.4830 C   0  0  0  0  0  0  0  0  0  0  0  0
  -29.1850   -2.1860  -28.1870 C   0  0  0  0  0  0  0  0  0  0  0  0
  1  2  2  0
  1  6  1  0
  1  3  1  0
  2  4  1  0
  3 10  1  0
  4  5  2  0
  5  6  1  0
  6  7  1  0
  7  9  1  0
  7  8  2  0
 10 15  1  0
 10 11  2  0
 11 12  1  0
 12 13  2  0
 13 14  1  0
 14 15  2  0
  9 16  1  0
M  END
>  <name>  (523) 
Car Nac Nd0 Car Nac Nac Cs2 .=O Cs3 Car Car Car Car Car Car Cs3

>  <indices>  (523) 
[0, 1, 2]

>  <tasks>  (523) 
probe_placing close_aromatic_ring close_aromatic_ring close_aromatic_ring ring_built build_to_Nac build_DB_to_Cs2 build_SB_to_Cs2 build_to_Nd0 close_aromatic_ring close_aromatic_ring close_aromatic_ring close_aromatic_ring close_aromatic_ring

>  <prot_clashes>  (523) 
7

>  <NBS phar>  (523) 
0.02

>  <NBS_non-phar>  (523) 
0.43198445439338684

>  <NBS>  (523) 
0.45198445439338686

>  <source_stage>  (523) 
scored

>  <source_iter>  (523) 
13

>  <source_parent_mol>  (523) 
0

>  <source_scenario>  (523) 
1 2 3 1 7 1 0 1 2 7 1 0 0

>  <source_rank_in_scored_call>  (523) 
113

>  <source_current_task>  (523) 
no_task

>  <scenario>  (523) 
1 2 3 1 7 1 0 1 2 7 1 0

>  <protected_ring_attachments>  (523) 
3,1,0,2|1,0,2;4,5,0,2|5,0,2;11,10,9,2|10,9,2;13,14,9,2|14,9,2

>  <current_task>  (523) 
no_task

>  <rotatable_bond_torsions>  (523) 
1,0,2,9;0,2,9,10;0,5,6,8

$$$$

     RDKit          3D

 12 12  0  0  0  0  0  0  0  0999 V2000
  -28.4560   -6.7590  -31.0050 C   0  0  0  0  0  0  0  0  0  0  0  0
  -27.9620   -6.6500  -32.2710 N   0  0  0  0  0  0  0  0  0  0  0  0
  -28.8190   -8.1040  -30.4440 N   0  0  0  0  0  0  0  0  0  0  0  0
  -27.6870   -5.3560  -32.5140 C   0  0  0  0  0  0  0  0  0  0  0  0
  -28.0170   -4.6720  -31.3820 N   0  0  0  0  0  0  0  0  0  0  0  0
  -28.4770   -5.5180  -30.4780 N   0  0  0  0  0  0  0  0  0  0  0  0
  -28.8800   -5.1690  -29.2060 C   0  0  0  0  0  0  0  0  0  0  0  0
  -29.3560   -5.9380  -28.3850 O   0  0  0  0  0  0  0  0  0  0  0  0
  -28.6150   -3.7520  -28.6490 C   0  0  0  0  0  0  0  0  0  0  0  0
  -27.9570   -8.6870  -29.5960 C   0  0  0  0  0  0  0  0  0  0  0  0
  -26.9380   -8.2770  -29.0500 O   0  0  0  0  0  0  0  0  0  0  0  0
  -28.2840  -10.1440  -29.1830 C   0  0  0  0  0  0  0  0  0  0  0  0
  1  2  2  0
  1  6  1  0
  1  3  1  0
  2  4  1  0
  3 10  1  0
  4  5  2  0
  5  6  1  0
  6  7  1  0
  7  9  1  0
  7  8  2  0
 10 12  1  0
 10 11  2  0
M  END
>  <name>  (524) 
Car Nac Nd0 Car Nac Nac Cs2 .=O Cs3 Cs2 .=O Cs3

>  <indices>  (524) 
[0, 1, 2]

>  <tasks>  (524) 
probe_placing close_aromatic_ring close_aromatic_ring close_aromatic_ring ring_built build_to_Nac build_DB_to_Cs2 build_SB_to_Cs2 build_to_Nd0 build_DB_to_Cs2

>  <prot_clashes>  (524) 
3

>  <NBS phar>  (524) 
0.2

>  <NBS_non-phar>  (524) 
0.4432535568873088

>  <NBS>  (524) 
0.6432535568873088

>  <source_stage>  (524) 
scored

>  <source_iter>  (524) 
9

>  <source_parent_mol>  (524) 
0

>  <source_scenario>  (524) 
1 2 3 1 7 1 0 2 0

>  <source_rank_in_scored_call>  (524) 
1

>  <source_current_task>  (524) 
build_SB_to_Cs2

>  <scenario>  (524) 
1 2 3 1 7 1 0 2

>  <protected_ring_attachments>  (524) 
3,1,0,2|1,0,2;4,5,0,2|5,0,2

>  <current_task>  (524) 
no_task

>  <rotatable_bond_torsions>  (524) 
1,0,2,9;0,2,9,10;0,5,6,8

$$$$

     RDKit          3D

 17 18  0  0  0  0  0  0  0  0999 V2000
  -28.4850   -6.7610  -30.9260 C   0  0  0  0  0  0  0  0  0  0  0  0
  -27.9630   -6.7420  -32.1850 N   0  0  0  0  0  0  0  0  0  0  0  0
  -28.8570   -8.0650  -30.2750 N   0  0  0  0  0  0  0  0  0  0  0  0
  -27.6880   -5.4670  -32.5130 C   0  0  0  0  0  0  0  0  0  0  0  0
  -28.0460   -4.7040  -31.4410 N   0  0  0  0  0  0  0  0  0  0  0  0
  -28.5240   -5.4850  -30.4880 N   0  0  0  0  0  0  0  0  0  0  0  0
  -28.9560   -5.0480  -29.2550 C   0  0  0  0  0  0  0  0  0  0  0  0
  -29.4480   -5.7570  -28.3920 O   0  0  0  0  0  0  0  0  0  0  0  0
  -28.7080   -3.5920  -28.7960 C   0  0  0  0  0  0  0  0  0  0  0  0
  -28.0120   -8.5810  -29.3700 C   0  0  0  0  0  0  0  0  0  0  0  0
  -27.0080   -8.1250  -28.8320 O   0  0  0  0  0  0  0  0  0  0  0  0
  -28.5010  -10.0470  -28.7540 C   0  0  0  0  0  0  0  0  0  0  0  0
  -27.6870  -10.8230  -27.9540 C   0  0  0  0  0  0  0  0  0  0  0  0
  -28.0340  -12.1350  -27.6660 C   0  0  0  0  0  0  0  0  0  0  0  0
  -29.2250  -12.6240  -28.2150 C   0  0  0  0  0  0  0  0  0  0  0  0
  -30.0320  -11.8360  -29.0150 C   0  0  0  0  0  0  0  0  0  0  0  0
  -29.6870  -10.5320  -29.3010 C   0  0  0  0  0  0  0  0  0  0  0  0
  1  2  2  0
  1  6  1  0
  1  3  1  0
  2  4  1  0
  3 10  1  0
  4  5  2  0
  5  6  1  0
  6  7  1  0
  7  9  1  0
  7  8  2  0
 10 11  2  0
 10 12  1  0
 12 17  1  0
 12 13  2  0
 13 14  1  0
 14 15  2  0
 15 16  1  0
 16 17  2  0
M  END
>  <name>  (525) 
Car Nac Nd0 Car Nac Nac Cs2 .=O Cs3 Cs2 .=O Car Car Car Car Car Car

>  <indices>  (525) 
[0, 1, 2]

>  <tasks>  (525) 
probe_placing close_aromatic_ring close_aromatic_ring close_aromatic_ring ring_built build_to_Nac build_DB_to_Cs2 build_SB_to_Cs2 build_to_Nd0 build_DB_to_Cs2 build_SB_to_Cs2 close_aromatic_ring close_aromatic_ring close_aromatic_ring close_aromatic_ring

>  <prot_clashes>  (525) 
4

>  <NBS phar>  (525) 
0.22000000000000003

>  <NBS_non-phar>  (525) 
0.4562672727248248

>  <NBS>  (525) 
0.6762672727248249

>  <source_stage>  (525) 
scored

>  <source_iter>  (525) 
14

>  <source_parent_mol>  (525) 
0

>  <source_scenario>  (525) 
1 2 3 1 7 1 0 2 0 0 0 1 1 0

>  <source_rank_in_scored_call>  (525) 
0

>  <source_current_task>  (525) 
close_aromatic_ring

>  <scenario>  (525) 
1 2 3 1 7 1 0 2 0 0 0 1 1

>  <protected_ring_attachments>  (525) 
3,1,0,2|1,0,2;4,5,0,2|5,0,2

>  <current_task>  (525) 
no_task

>  <rotatable_bond_torsions>  (525) 
1,0,2,9;0,2,9,11;0,5,6,8;2,9,11,12;11,12,13,14

$$$$

     RDKit          3D

 17 18  0  0  0  0  0  0  0  0999 V2000
  -28.4810   -6.7600  -30.9290 C   0  0  0  0  0  0  0  0  0  0  0  0
  -27.9600   -6.7370  -32.1880 N   0  0  0  0  0  0  0  0  0  0  0  0
  -28.8490   -8.0670  -30.2820 N   0  0  0  0  0  0  0  0  0  0  0  0
  -27.6890   -5.4600  -32.5130 C   0  0  0  0  0  0  0  0  0  0  0  0
  -28.0490   -4.7010  -31.4390 N   0  0  0  0  0  0  0  0  0  0  0  0
  -28.5240   -5.4860  -30.4870 N   0  0  0  0  0  0  0  0  0  0  0  0
  -28.9570   -5.0540  -29.2530 C   0  0  0  0  0  0  0  0  0  0  0  0
  -29.4460   -5.7670  -28.3910 O   0  0  0  0  0  0  0  0  0  0  0  0
  -28.7130   -3.5980  -28.7900 C   0  0  0  0  0  0  0  0  0  0  0  0
  -28.0020   -8.5830  -29.3790 C   0  0  0  0  0  0  0  0  0  0  0  0
  -26.9990   -8.1250  -28.8390 O   0  0  0  0  0  0  0  0  0  0  0  0
  -28.4310  -10.1090  -28.9300 C   0  0  0  0  0  0  0  0  0  0  0  0
  -27.6880  -10.8020  -27.9950 C   0  0  0  0  0  0  0  0  0  0  0  0
  -28.0950  -12.0900  -27.6550 C   0  0  0  0  0  0  0  0  0  0  0  0
  -29.2120  -12.6570  -28.2370 C   0  0  0  0  0  0  0  0  0  0  0  0
  -29.9480  -11.9540  -29.1710 C   0  0  0  0  0  0  0  0  0  0  0  0
  -29.5470  -10.6610  -29.5190 C   0  0  0  0  0  0  0  0  0  0  0  0
  1  2  2  0
  1  6  1  0
  1  3  1  0
  2  4  1  0
  3 10  1  0
  4  5  2  0
  5  6  1  0
  6  7  1  0
  7  9  1  0
  7  8  2  0
 10 12  1  0
 10 11  2  0
 12 17  1  0
 12 13  2  0
 13 14  1  0
 14 15  2  0
 15 16  1  0
 16 17  2  0
M  END
>  <name>  (526) 
Car Nac Nd0 Car Nac Nac Cs2 .=O Cs3 Cs2 .=O Car Car Car Car Car Car

>  <indices>  (526) 
[0, 1, 2]

>  <tasks>  (526) 
probe_placing close_aromatic_ring close_aromatic_ring close_aromatic_ring ring_built build_to_Nac build_DB_to_Cs2 build_SB_to_Cs2 build_to_Nd0 build_DB_to_Cs2 build_SB_to_Cs2 close_aromatic_ring close_aromatic_ring close_aromatic_ring close_aromatic_ring

>  <prot_clashes>  (526) 
4

>  <NBS phar>  (526) 
0.22000000000000003

>  <NBS_non-phar>  (526) 
0.4514722543604234

>  <NBS>  (526) 
0.6714722543604235

>  <source_stage>  (526) 
scored

>  <source_iter>  (526) 
14

>  <source_parent_mol>  (526) 
0

>  <source_scenario>  (526) 
1 2 3 1 7 1 0 2 0 0 0 1 1 0

>  <source_rank_in_scored_call>  (526) 
1

>  <source_current_task>  (526) 
close_aromatic_ring

>  <scenario>  (526) 
1 2 3 1 7 1 0 2 0 0 0 1 1

>  <protected_ring_attachments>  (526) 
3,1,0,2|1,0,2;4,5,0,2|5,0,2

>  <current_task>  (526) 
no_task

>  <rotatable_bond_torsions>  (526) 
1,0,2,9;0,2,9,11;0,5,6,8;2,9,11,12;11,12,13,14

$$$$

     RDKit          3D

 17 18  0  0  0  0  0  0  0  0999 V2000
  -28.4890   -6.7630  -30.9210 C   0  0  0  0  0  0  0  0  0  0  0  0
  -27.9680   -6.7510  -32.1800 N   0  0  0  0  0  0  0  0  0  0  0  0
  -28.8650   -8.0630  -30.2650 N   0  0  0  0  0  0  0  0  0  0  0  0
  -27.6890   -5.4780  -32.5130 C   0  0  0  0  0  0  0  0  0  0  0  0
  -28.0430   -4.7100  -31.4440 N   0  0  0  0  0  0  0  0  0  0  0  0
  -28.5230   -5.4850  -30.4870 N   0  0  0  0  0  0  0  0  0  0  0  0
  -28.9520   -5.0430  -29.2560 C   0  0  0  0  0  0  0  0  0  0  0  0
  -29.4460   -5.7470  -28.3890 O   0  0  0  0  0  0  0  0  0  0  0  0
  -28.6980   -3.5860  -28.8020 C   0  0  0  0  0  0  0  0  0  0  0  0
  -28.0210   -8.5790  -29.3590 C   0  0  0  0  0  0  0  0  0  0  0  0
  -27.0150   -8.1250  -28.8230 O   0  0  0  0  0  0  0  0  0  0  0  0
  -28.2610  -10.2290  -29.0040 C   0  0  0  0  0  0  0  0  0  0  0  0
  -27.6880  -10.8390  -27.9000 C   0  0  0  0  0  0  0  0  0  0  0  0
  -28.1700  -12.0530  -27.4730 C   0  0  0  0  0  0  0  0  0  0  0  0
  -29.2160  -12.6050  -28.1810 C   0  0  0  0  0  0  0  0  0  0  0  0
  -29.7910  -12.0070  -29.2790 C   0  0  0  0  0  0  0  0  0  0  0  0
  -29.3080  -10.7890  -29.7090 C   0  0  0  0  0  0  0  0  0  0  0  0
  1  2  2  0
  1  6  1  0
  1  3  1  0
  2  4  1  0
  3 10  1  0
  4  5  2  0
  5  6  1  0
  6  7  1  0
  7  9  1  0
  7  8  2  0
 10 12  1  0
 10 11  2  0
 12 17  1  0
 12 13  2  0
 13 14  1  0
 14 15  2  0
 15 16  1  0
 16 17  2  0
M  END
>  <name>  (527) 
Car Nac Nd0 Car Nac Nac Cs2 .=O Cs3 Cs2 .=O Car Car Car Car Car Car

>  <indices>  (527) 
[0, 1, 2]

>  <tasks>  (527) 
probe_placing close_aromatic_ring close_aromatic_ring close_aromatic_ring ring_built build_to_Nac build_DB_to_Cs2 build_SB_to_Cs2 build_to_Nd0 build_DB_to_Cs2 build_SB_to_Cs2 close_aromatic_ring close_aromatic_ring close_aromatic_ring close_aromatic_ring

>  <prot_clashes>  (527) 
3

>  <NBS phar>  (527) 
0.22000000000000003

>  <NBS_non-phar>  (527) 
0.4473513434914982

>  <NBS>  (527) 
0.6673513434914982

>  <source_stage>  (527) 
scored

>  <source_iter>  (527) 
14

>  <source_parent_mol>  (527) 
0

>  <source_scenario>  (527) 
1 2 3 1 7 1 0 2 0 0 0 1 1 0

>  <source_rank_in_scored_call>  (527) 
2

>  <source_current_task>  (527) 
close_aromatic_ring

>  <scenario>  (527) 
1 2 3 1 7 1 0 2 0 0 0 1 1

>  <protected_ring_attachments>  (527) 
3,1,0,2|1,0,2;4,5,0,2|5,0,2

>  <current_task>  (527) 
no_task

>  <rotatable_bond_torsions>  (527) 
1,0,2,9;0,2,9,11;0,5,6,8;2,9,11,12;11,12,13,14

$$$$

     RDKit          3D

 17 18  0  0  0  0  0  0  0  0999 V2000
  -28.5810   -6.5940  -30.8450 C   0  0  0  0  0  0  0  0  0  0  0  0
  -28.0270   -6.7030  -32.0880 N   0  0  0  0  0  0  0  0  0  0  0  0
  -29.0250   -7.8230  -30.1020 N   0  0  0  0  0  0  0  0  0  0  0  0
  -27.6880   -5.4740  -32.5130 C   0  0  0  0  0  0  0  0  0  0  0  0
  -28.0390   -4.6100  -31.5190 N   0  0  0  0  0  0  0  0  0  0  0  0
  -28.5740   -5.2870  -30.5190 N   0  0  0  0  0  0  0  0  0  0  0  0
  -29.0190   -4.7300  -29.3390 C   0  0  0  0  0  0  0  0  0  0  0  0
  -29.5640   -5.3420  -28.4350 O   0  0  0  0  0  0  0  0  0  0  0  0
  -28.7200   -3.2530  -28.9960 C   0  0  0  0  0  0  0  0  0  0  0  0
  -28.2260   -8.2950  -29.1310 C   0  0  0  0  0  0  0  0  0  0  0  0
  -27.2160   -7.8390  -28.6060 O   0  0  0  0  0  0  0  0  0  0  0  0
  -28.6740   -9.7120  -28.5590 C   0  0  0  0  0  0  0  0  0  0  0  0
  -29.9870  -10.1380  -28.6120 C   0  0  0  0  0  0  0  0  0  0  0  0
  -27.6880  -10.4630  -27.9530 C   0  0  0  0  0  0  0  0  0  0  0  0
  -28.0250  -11.6730  -27.3840 C   0  0  0  0  0  0  0  0  0  0  0  0
  -30.3040  -11.3480  -28.0380 C   0  0  0  0  0  0  0  0  0  0  0  0
  -29.3330  -12.1170  -27.4260 C   0  0  0  0  0  0  0  0  0  0  0  0
  1  2  2  0
  1  6  1  0
  1  3  1  0
  2  4  1  0
  3 10  1  0
  4  5  2  0
  5  6  1  0
  6  7  1  0
  7  9  1  0
  7  8  2  0
 10 11  2  0
 10 12  1  0
 12 13  2  0
 12 14  1  0
 13 16  1  0
 14 15  2  0
 15 17  1  0
 16 17  2  0
M  END
>  <name>  (528) 
Car Nac Nd0 Car Nac Nac Cs2 .=O Cs3 Cs2 .=O Car Car Car Car Car Car

>  <indices>  (528) 
[0, 1, 2]

>  <tasks>  (528) 
probe_placing close_aromatic_ring close_aromatic_ring close_aromatic_ring ring_built build_to_Nac build_DB_to_Cs2 build_SB_to_Cs2 build_to_Nd0 build_DB_to_Cs2 build_SB_to_Cs2 close_aromatic_ring close_aromatic_ring close_aromatic_ring close_aromatic_ring

>  <prot_clashes>  (528) 
4

>  <NBS phar>  (528) 
0.12

>  <NBS_non-phar>  (528) 
0.3924240224501666

>  <NBS>  (528) 
0.5124240224501666

>  <source_stage>  (528) 
scored

>  <source_iter>  (528) 
14

>  <source_parent_mol>  (528) 
0

>  <source_scenario>  (528) 
1 2 3 1 7 1 0 2 0 0 6 7 0 0

>  <source_rank_in_scored_call>  (528) 
0

>  <source_current_task>  (528) 
close_aromatic_ring

>  <scenario>  (528) 
1 2 3 1 7 1 0 2 0 0 6 7 0

>  <protected_ring_attachments>  (528) 
3,1,0,2|1,0,2;4,5,0,2|5,0,2

>  <current_task>  (528) 
no_task

>  <rotatable_bond_torsions>  (528) 
1,0,2,9;0,2,9,11;0,5,6,8;2,9,11,12;9,11,12,15

$$$$

     RDKit          3D

 17 18  0  0  0  0  0  0  0  0999 V2000
  -28.5860   -6.5990  -30.8460 C   0  0  0  0  0  0  0  0  0  0  0  0
  -28.0320   -6.7110  -32.0890 N   0  0  0  0  0  0  0  0  0  0  0  0
  -29.0350   -7.8270  -30.1040 N   0  0  0  0  0  0  0  0  0  0  0  0
  -27.6880   -5.4830  -32.5130 C   0  0  0  0  0  0  0  0  0  0  0  0
  -28.0360   -4.6180  -31.5190 N   0  0  0  0  0  0  0  0  0  0  0  0
  -28.5740   -5.2930  -30.5190 N   0  0  0  0  0  0  0  0  0  0  0  0
  -29.0160   -4.7340  -29.3390 C   0  0  0  0  0  0  0  0  0  0  0  0
  -29.5630   -5.3450  -28.4360 O   0  0  0  0  0  0  0  0  0  0  0  0
  -28.7120   -3.2590  -28.9960 C   0  0  0  0  0  0  0  0  0  0  0  0
  -28.2380   -8.3020  -29.1320 C   0  0  0  0  0  0  0  0  0  0  0  0
  -27.2270   -7.8510  -28.6060 O   0  0  0  0  0  0  0  0  0  0  0  0
  -28.6660   -9.7120  -28.5580 C   0  0  0  0  0  0  0  0  0  0  0  0
  -30.0040  -10.1180  -28.6000 C   0  0  0  0  0  0  0  0  0  0  0  0
  -27.6890  -10.4790  -27.9600 C   0  0  0  0  0  0  0  0  0  0  0  0
  -28.0330  -11.6730  -27.3880 C   0  0  0  0  0  0  0  0  0  0  0  0
  -29.3500  -12.0940  -27.4190 C   0  0  0  0  0  0  0  0  0  0  0  0
  -30.3500  -11.3240  -28.0240 C   0  0  0  0  0  0  0  0  0  0  0  0
  1  2  2  0
  1  6  1  0
  1  3  1  0
  2  4  1  0
  3 10  1  0
  4  5  2  0
  5  6  1  0
  6  7  1  0
  7  9  1  0
  7  8  2  0
 10 11  2  0
 10 12  1  0
 12 13  2  0
 12 14  1  0
 13 17  1  0
 14 15  2  0
 15 16  1  0
 16 17  2  0
M  END
>  <name>  (529) 
Car Nac Nd0 Car Nac Nac Cs2 .=O Cs3 Cs2 .=O Car Car Car Car Car Car

>  <indices>  (529) 
[0, 1, 2]

>  <tasks>  (529) 
probe_placing close_aromatic_ring close_aromatic_ring close_aromatic_ring ring_built build_to_Nac build_DB_to_Cs2 build_SB_to_Cs2 build_to_Nd0 build_DB_to_Cs2 build_SB_to_Cs2 close_aromatic_ring close_aromatic_ring close_aromatic_ring close_aromatic_ring

>  <prot_clashes>  (529) 
4

>  <NBS phar>  (529) 
0.12

>  <NBS_non-phar>  (529) 
0.37661779628080483

>  <NBS>  (529) 
0.4966177962808048

>  <source_stage>  (529) 
scored

>  <source_iter>  (529) 
14

>  <source_parent_mol>  (529) 
4

>  <source_scenario>  (529) 
1 2 3 1 7 1 0 2 0 0 6 7 0 4

>  <source_rank_in_scored_call>  (529) 
1

>  <source_current_task>  (529) 
close_aromatic_ring

>  <scenario>  (529) 
1 2 3 1 7 1 0 2 0 0 6 7 0

>  <protected_ring_attachments>  (529) 
3,1,0,2|1,0,2;4,5,0,2|5,0,2

>  <current_task>  (529) 
no_task

>  <rotatable_bond_torsions>  (529) 
1,0,2,9;0,2,9,11;0,5,6,8;2,9,11,13;11,13,14,15

$$$$

     RDKit          3D

 17 18  0  0  0  0  0  0  0  0999 V2000
  -28.4510   -6.7340  -30.9910 C   0  0  0  0  0  0  0  0  0  0  0  0
  -27.9500   -6.6330  -32.2570 N   0  0  0  0  0  0  0  0  0  0  0  0
  -28.8020   -8.0760  -30.4160 N   0  0  0  0  0  0  0  0  0  0  0  0
  -27.6890   -5.3400  -32.5130 C   0  0  0  0  0  0  0  0  0  0  0  0
  -28.0340   -4.6470  -31.3930 N   0  0  0  0  0  0  0  0  0  0  0  0
  -28.4900   -5.4860  -30.4800 N   0  0  0  0  0  0  0  0  0  0  0  0
  -28.9050   -5.1260  -29.2150 C   0  0  0  0  0  0  0  0  0  0  0  0
  -29.3800   -5.8900  -28.3880 O   0  0  0  0  0  0  0  0  0  0  0  0
  -28.6620   -3.6990  -28.6750 C   0  0  0  0  0  0  0  0  0  0  0  0
  -27.9390   -8.6380  -29.5550 C   0  0  0  0  0  0  0  0  0  0  0  0
  -26.9290   -8.2080  -29.0090 O   0  0  0  0  0  0  0  0  0  0  0  0
  -28.4490  -10.1190  -29.0440 C   0  0  0  0  0  0  0  0  0  0  0  0
  -27.9690  -10.6500  -27.8780 C   0  0  0  0  0  0  0  0  0  0  0  0
  -28.2050  -11.9800  -27.5990 C   0  0  0  0  0  0  0  0  0  0  0  0
  -28.9230  -12.7620  -28.4970 C   0  0  0  0  0  0  0  0  0  0  0  0
  -29.3910  -12.1980  -29.6590 C   0  0  0  0  0  0  0  0  0  0  0  0
  -29.1730  -10.8600  -29.9760 C   0  0  0  0  0  0  0  0  0  0  0  0
  1  2  2  0
  1  6  1  0
  1  3  1  0
  2  4  1  0
  3 10  1  0
  4  5  2  0
  5  6  1  0
  6  7  1  0
  7  9  1  0
  7  8  2  0
 10 12  1  0
 10 11  2  0
 12 17  1  0
 12 13  2  0
 13 14  1  0
 14 15  2  0
 15 16  1  0
 16 17  2  0
M  END
>  <name>  (530) 
Car Nac Nd0 Car Nac Nac Cs2 .=O Cs3 Cs2 .=O Car Car Car Car Car Car

>  <indices>  (530) 
[0, 1, 2]

>  <tasks>  (530) 
probe_placing close_aromatic_ring close_aromatic_ring close_aromatic_ring ring_built build_to_Nac build_DB_to_Cs2 build_SB_to_Cs2 build_to_Nd0 build_DB_to_Cs2 build_SB_to_Cs2 close_aromatic_ring close_aromatic_ring close_aromatic_ring close_aromatic_ring

>  <prot_clashes>  (530) 
3

>  <NBS phar>  (530) 
0.2

>  <NBS_non-phar>  (530) 
0.45736130546121034

>  <NBS>  (530) 
0.6573613054612104

>  <source_stage>  (530) 
scored

>  <source_iter>  (530) 
14

>  <source_parent_mol>  (530) 
1

>  <source_scenario>  (530) 
1 2 3 1 7 1 0 2 0 0 7 1 1 1

>  <source_rank_in_scored_call>  (530) 
1

>  <source_current_task>  (530) 
close_aromatic_ring

>  <scenario>  (530) 
1 2 3 1 7 1 0 2 0 0 7 1 1

>  <protected_ring_attachments>  (530) 
3,1,0,2|1,0,2;4,5,0,2|5,0,2

>  <current_task>  (530) 
no_task

>  <rotatable_bond_torsions>  (530) 
1,0,2,9;0,2,9,11;0,5,6,8;2,9,11,12;11,12,13,14

$$$$

     RDKit          3D

 18 19  0  0  0  0  0  0  0  0999 V2000
  -28.4480   -6.5540  -31.0490 C   0  0  0  0  0  0  0  0  0  0  0  0
  -27.9170   -6.4110  -32.2970 N   0  0  0  0  0  0  0  0  0  0  0  0
  -28.7930   -7.9150  -30.5200 N   0  0  0  0  0  0  0  0  0  0  0  0
  -27.6700   -5.1070  -32.5120 C   0  0  0  0  0  0  0  0  0  0  0  0
  -28.0550   -4.4500  -31.3820 N   0  0  0  0  0  0  0  0  0  0  0  0
  -28.5210   -5.3210  -30.5040 N   0  0  0  0  0  0  0  0  0  0  0  0
  -28.9740   -5.0010  -29.2420 C   0  0  0  0  0  0  0  0  0  0  0  0
  -29.4580   -5.7950  -28.4490 O   0  0  0  0  0  0  0  0  0  0  0  0
  -28.7660   -3.5870  -28.6570 C   0  0  0  0  0  0  0  0  0  0  0  0
  -27.9450   -8.4880  -29.6520 C   0  0  0  0  0  0  0  0  0  0  0  0
  -26.9550   -8.0600  -29.0690 O   0  0  0  0  0  0  0  0  0  0  0  0
  -28.3100  -10.0520  -29.3400 C   0  0  0  0  0  0  0  0  0  0  0  0
  -28.0100  -10.5660  -28.0750 C   0  0  0  0  0  0  0  0  0  0  0  0
  -28.2900  -11.8790  -27.7470 C   0  0  0  0  0  0  0  0  0  0  0  0
  -28.8780  -12.6560  -28.7180 C   0  0  0  0  0  0  0  0  0  0  0  0
  -29.1890  -12.1710  -29.9830 C   0  0  0  0  0  0  0  0  0  0  0  0
  -28.8960  -10.8460  -30.2900 C   0  0  0  0  0  0  0  0  0  0  0  0
  -27.3670   -9.6690  -27.0460 C   0  0  0  0  0  0  0  0  0  0  0  0
  1  2  2  0
  1  3  1  0
  1  6  1  0
  2  4  1  0
  3 10  1  0
  4  5  2  0
  5  6  1  0
  6  7  1  0
  7  9  1  0
  7  8  2  0
 10 12  1  0
 10 11  2  0
 12 17  1  0
 12 13  2  0
 13 14  1  0
 13 18  1  0
 14 15  2  0
 15 16  1  0
 16 17  2  0
M  END
>  <name>  (531) 
Car Nac Nd0 Car Nac Nac Cs2 .=O Cs3 Cs2 .=O Car Car Car Car Car Car Cs3

>  <indices>  (531) 
[0, 1, 2]

>  <tasks>  (531) 
probe_placing close_aromatic_ring close_aromatic_ring close_aromatic_ring ring_built build_to_Nac build_DB_to_Cs2 build_SB_to_Cs2 build_to_Nd0 build_DB_to_Cs2 build_SB_to_Cs2 close_aromatic_ring close_aromatic_ring close_aromatic_ring close_aromatic_ring close_aromatic_ring

>  <prot_clashes>  (531) 
3

>  <NBS phar>  (531) 
0.2

>  <NBS_non-phar>  (531) 
0.5014833874172635

>  <NBS>  (531) 
0.7014833874172635

>  <source_stage>  (531) 
scored

>  <source_iter>  (531) 
15

>  <source_parent_mol>  (531) 
0

>  <source_scenario>  (531) 
1 2 3 1 7 1 0 2 0 0 7 1 1 1 0

>  <source_rank_in_scored_call>  (531) 
4

>  <source_current_task>  (531) 
build_orthosubstituent_to_rotated_amide

>  <scenario>  (531) 
1 2 3 1 7 1 0 2 0 0 7 1 1 1

>  <protected_ring_attachments>  (531) 
3,1,0,2|1,0,2;4,5,0,2|5,0,2

>  <current_task>  (531) 
no_task

>  <rotatable_bond_torsions>  (531) 
1,0,2,9;0,2,9,11;0,5,6,8;2,9,11,12

>  <flag ortho>  (531) 


$$$$

     RDKit          3D

 15 16  0  0  0  0  0  0  0  0999 V2000
  -28.6800   -6.5780  -30.6410 C   0  0  0  0  0  0  0  0  0  0  0  0
  -28.0760   -6.8020  -31.8440 N   0  0  0  0  0  0  0  0  0  0  0  0
  -29.1870   -7.7270  -29.8180 N   0  0  0  0  0  0  0  0  0  0  0  0
  -27.6870   -5.6220  -32.3540 C   0  0  0  0  0  0  0  0  0  0  0  0
  -28.0600   -4.6710  -31.4530 N   0  0  0  0  0  0  0  0  0  0  0  0
  -28.6540   -5.2490  -30.4250 N   0  0  0  0  0  0  0  0  0  0  0  0
  -29.1340   -4.5820  -29.3160 C   0  0  0  0  0  0  0  0  0  0  0  0
  -29.7320   -5.1050  -28.3900 O   0  0  0  0  0  0  0  0  0  0  0  0
  -28.8120   -3.0870  -29.0840 C   0  0  0  0  0  0  0  0  0  0  0  0
  -28.9900   -9.0910  -30.4050 C   0  0  1  0  0  0  0  0  0  0  0  0
  -28.8580   -9.8180  -29.0830 C   0  0  0  0  0  0  0  0  0  0  0  0
  -27.9770  -10.8770  -29.1850 O   0  0  0  0  0  0  0  0  0  0  0  0
  -28.3850  -11.7980  -30.1360 C   0  0  0  0  0  0  0  0  0  0  0  0
  -28.4940  -11.1810  -31.5020 C   0  0  0  0  0  0  0  0  0  0  0  0
  -29.5060  -10.0810  -31.4270 C   0  0  0  0  0  0  0  0  0  0  0  0
  1  2  2  0
  1  6  1  0
  1  3  1  0
  2  4  1  0
 10  3  1  1
  4  5  2  0
  5  6  1  0
  6  7  1  0
  7  9  1  0
  7  8  2  0
 10 15  1  0
 10 11  1  0
 11 12  1  0
 12 13  1  0
 13 14  1  0
 14 15  1  0
M  END
>  <name>  (532) 
Car Nac Nd0 Car Nac Nac Cs2 .=O Cs3 C3r C3r O_a C3r C3r C3r

>  <indices>  (532) 
[0, 1, 2]

>  <tasks>  (532) 
probe_placing close_aromatic_ring close_aromatic_ring close_aromatic_ring ring_built build_to_Nac build_DB_to_Cs2 build_SB_to_Cs2 build_to_Nd0 close_aliphatic_ring close_aliphatic_ring close_aliphatic_ring close_aliphatic_ring

>  <prot_clashes>  (532) 
5

>  <NBS phar>  (532) 
0.12

>  <NBS_non-phar>  (532) 
0.39544315338134767

>  <NBS>  (532) 
0.5154431533813477

>  <source_stage>  (532) 
scored

>  <source_iter>  (532) 
12

>  <source_parent_mol>  (532) 
1

>  <source_scenario>  (532) 
1 2 3 1 7 1 0 3 0 1 3 1

>  <source_rank_in_scored_call>  (532) 
2

>  <source_current_task>  (532) 
close_aliphatic_ring

>  <scenario>  (532) 
1 2 3 1 7 1 0 3 0 1 3

>  <protected_ring_attachments>  (532) 
3,1,0,2|1,0,2;4,5,0,2|5,0,2

>  <current_task>  (532) 
no_task

>  <rotatable_bond_torsions>  (532) 
1,0,2,9;0,2,9,10;0,5,6,8;2,9,10,11;9,10,11,12;10,11,12,13

$$$$

     RDKit          3D

 16 17  0  0  0  0  0  0  0  0999 V2000
  -28.5240   -6.4690  -30.6440 C   0  0  0  0  0  0  0  0  0  0  0  0
  -27.8470   -6.6460  -31.8150 N   0  0  0  0  0  0  0  0  0  0  0  0
  -29.1240   -7.6440  -29.9270 N   0  0  0  0  0  0  0  0  0  0  0  0
  -27.3850   -5.4530  -32.2270 C   0  0  0  0  0  0  0  0  0  0  0  0
  -27.7880   -4.5430  -31.2980 N   0  0  0  0  0  0  0  0  0  0  0  0
  -28.4700   -5.1560  -30.3480 N   0  0  0  0  0  0  0  0  0  0  0  0
  -29.0030   -4.5370  -29.2350 C   0  0  0  0  0  0  0  0  0  0  0  0
  -29.6800   -5.0900  -28.3840 O   0  0  0  0  0  0  0  0  0  0  0  0
  -28.6480   -3.0710  -28.8940 C   0  0  0  0  0  0  0  0  0  0  0  0
  -28.9320   -8.9780  -30.5800 C   0  0  1  0  0  0  0  0  0  0  0  0
  -28.9150   -9.7840  -29.2980 C   0  0  0  0  0  0  0  0  0  0  0  0
  -28.0640  -10.8670  -29.4040 O   0  0  0  0  0  0  0  0  0  0  0  0
  -28.4360  -11.7170  -30.4330 C   0  0  0  0  0  0  0  0  0  0  0  0
  -28.4300  -11.0190  -31.7640 C   0  0  0  0  0  0  0  0  0  0  0  0
  -29.4090   -9.8880  -31.6910 C   0  0  0  0  0  0  0  0  0  0  0  0
  -29.1720   -2.1340  -29.9980 C   0  0  0  0  0  0  0  0  0  0  0  0
  1  2  2  0
  1  6  1  0
  1  3  1  0
  2  4  1  0
 10  3  1  1
  4  5  2  0
  5  6  1  0
  6  7  1  0
  7  9  1  0
  7  8  2  0
 10 15  1  0
 10 11  1  0
 11 12  1  0
 12 13  1  0
 13 14  1  0
 14 15  1  0
  9 16  1  0
M  END
>  <name>  (533) 
Car Nac Nd0 Car Nac Nac Cs2 .=O Cs3 C3r C3r O_a C3r C3r C3r Cs3

>  <indices>  (533) 
[0, 1, 2]

>  <tasks>  (533) 
probe_placing close_aromatic_ring close_aromatic_ring close_aromatic_ring ring_built build_to_Nac build_DB_to_Cs2 build_SB_to_Cs2 build_to_Nd0 close_aliphatic_ring close_aliphatic_ring close_aliphatic_ring close_aliphatic_ring close_aliphatic_ring

>  <prot_clashes>  (533) 
4

>  <NBS phar>  (533) 
0.24000000000000005

>  <NBS_non-phar>  (533) 
0.5298696756362915

>  <NBS>  (533) 
0.7698696756362915

>  <source_stage>  (533) 
scored

>  <source_iter>  (533) 
13

>  <source_parent_mol>  (533) 
2

>  <source_scenario>  (533) 
1 2 3 1 7 1 0 3 0 1 3 1 2

>  <source_rank_in_scored_call>  (533) 
0

>  <source_current_task>  (533) 
no_task

>  <scenario>  (533) 
1 2 3 1 7 1 0 3 0 1 3 1

>  <protected_ring_attachments>  (533) 
3,1,0,2|1,0,2;4,5,0,2|5,0,2;11,10,9,2|10,9,2;13,14,9,2|14,9,2

>  <current_task>  (533) 
no_task

>  <rotatable_bond_torsions>  (533) 
1,0,2,9;0,2,9,10;0,5,6,8

>  <reason_to_skip>  (533) 
global_duplicate

>  <global_duplicate_rmsd>  (533) 
0.0

>  <global_duplicate_old_source_iter>  (533) 
12

>  <global_duplicate_old_source_parent_mol>  (533) 
1

>  <global_duplicate_old_index>  (533) 
NA

>  <global_duplicate_rotatable_bond_torsions>  (533) 
1,0,2,9;0,2,9,10;0,5,6,8

>  <global_duplicate_old_rotatable_bond_torsions>  (533) 
1,0,2,9;0,2,9,10;0,5,6,8

>  <global_duplicate_last_growth_torsion>  (533) 
(11, 12, 13, 14)

>  <global_duplicate_protected_ring_attachments>  (533) 
3,1,0,2|1,0,2;4,5,0,2|5,0,2;11,10,9,2|10,9,2;13,14,9,2|14,9,2

>  <global_duplicate_old_last_growth_torsion>  (533) 
(11, 12, 13, 14)

>  <global_duplicate_old_protected_ring_attachments>  (533) 
3,1,0,2|1,0,2;4,5,0,2|5,0,2;11,10,9,2|10,9,2;13,14,9,2|14,9,2

$$$$

     RDKit          3D

 16 17  0  0  0  0  0  0  0  0999 V2000
  -28.4930   -6.4350  -30.6640 C   0  0  0  0  0  0  0  0  0  0  0  0
  -27.8170   -6.6200  -31.8350 N   0  0  0  0  0  0  0  0  0  0  0  0
  -29.0980   -7.6040  -29.9410 N   0  0  0  0  0  0  0  0  0  0  0  0
  -27.3490   -5.4320  -32.2510 C   0  0  0  0  0  0  0  0  0  0  0  0
  -27.7460   -4.5150  -31.3250 N   0  0  0  0  0  0  0  0  0  0  0  0
  -28.4300   -5.1220  -30.3720 N   0  0  0  0  0  0  0  0  0  0  0  0
  -28.9590   -4.4950  -29.2620 C   0  0  0  0  0  0  0  0  0  0  0  0
  -29.6380   -5.0410  -28.4080 O   0  0  0  0  0  0  0  0  0  0  0  0
  -28.5960   -3.0300  -28.9260 C   0  0  0  0  0  0  0  0  0  0  0  0
  -28.9150   -8.9420  -30.5900 C   0  0  1  0  0  0  0  0  0  0  0  0
  -28.9010   -9.7430  -29.3050 C   0  0  0  0  0  0  0  0  0  0  0  0
  -28.0560  -10.8310  -29.4080 O   0  0  0  0  0  0  0  0  0  0  0  0
  -28.4340  -11.6820  -30.4330 C   0  0  0  0  0  0  0  0  0  0  0  0
  -28.4260  -10.9890  -31.7670 C   0  0  0  0  0  0  0  0  0  0  0  0
  -29.3970   -9.8530  -31.6970 C   0  0  0  0  0  0  0  0  0  0  0  0
  -29.1840   -2.0210  -29.9610 C   0  0  0  0  0  0  0  0  0  0  0  0
  1  2  2  0
  1  6  1  0
  1  3  1  0
  2  4  1  0
 10  3  1  1
  4  5  2  0
  5  6  1  0
  6  7  1  0
  7  9  1  0
  7  8  2  0
 10 15  1  0
 10 11  1  0
 11 12  1  0
 12 13  1  0
 13 14  1  0
 14 15  1  0
  9 16  1  0
M  END
>  <name>  (534) 
Car Nac Nd0 Car Nac Nac Cs2 .=O Cs3 C3r C3r O_a C3r C3r C3r Cs3

>  <indices>  (534) 
[0, 1, 2]

>  <tasks>  (534) 
probe_placing close_aromatic_ring close_aromatic_ring close_aromatic_ring ring_built build_to_Nac build_DB_to_Cs2 build_SB_to_Cs2 build_to_Nd0 close_aliphatic_ring close_aliphatic_ring close_aliphatic_ring close_aliphatic_ring close_aliphatic_ring

>  <prot_clashes>  (534) 
4

>  <NBS phar>  (534) 
0.24000000000000005

>  <NBS_non-phar>  (534) 
0.5144262313842773

>  <NBS>  (534) 
0.7544262313842773

>  <source_stage>  (534) 
scored

>  <source_iter>  (534) 
13

>  <source_parent_mol>  (534) 
2

>  <source_scenario>  (534) 
1 2 3 1 7 1 0 3 0 1 3 1 2

>  <source_rank_in_scored_call>  (534) 
1

>  <source_current_task>  (534) 
no_task

>  <scenario>  (534) 
1 2 3 1 7 1 0 3 0 1 3 1

>  <protected_ring_attachments>  (534) 
3,1,0,2|1,0,2;4,5,0,2|5,0,2;11,10,9,2|10,9,2;13,14,9,2|14,9,2

>  <current_task>  (534) 
no_task

>  <rotatable_bond_torsions>  (534) 
1,0,2,9;0,2,9,10;0,5,6,8

>  <reason_to_skip>  (534) 
global_duplicate

>  <global_duplicate_rmsd>  (534) 
0.0

>  <global_duplicate_old_source_iter>  (534) 
12

>  <global_duplicate_old_source_parent_mol>  (534) 
1

>  <global_duplicate_old_index>  (534) 
NA

>  <global_duplicate_rotatable_bond_torsions>  (534) 
1,0,2,9;0,2,9,10;0,5,6,8

>  <global_duplicate_old_rotatable_bond_torsions>  (534) 
1,0,2,9;0,2,9,10;0,5,6,8

>  <global_duplicate_last_growth_torsion>  (534) 
(11, 12, 13, 14)

>  <global_duplicate_protected_ring_attachments>  (534) 
3,1,0,2|1,0,2;4,5,0,2|5,0,2;11,10,9,2|10,9,2;13,14,9,2|14,9,2

>  <global_duplicate_old_last_growth_torsion>  (534) 
(11, 12, 13, 14)

>  <global_duplicate_old_protected_ring_attachments>  (534) 
3,1,0,2|1,0,2;4,5,0,2|5,0,2;11,10,9,2|10,9,2;13,14,9,2|14,9,2

$$$$

     RDKit          3D

 16 17  0  0  0  0  0  0  0  0999 V2000
  -28.4890   -6.4460  -30.6700 C   0  0  0  0  0  0  0  0  0  0  0  0
  -27.8180   -6.6350  -31.8430 N   0  0  0  0  0  0  0  0  0  0  0  0
  -29.0950   -7.6120  -29.9430 N   0  0  0  0  0  0  0  0  0  0  0  0
  -27.3490   -5.4490  -32.2640 C   0  0  0  0  0  0  0  0  0  0  0  0
  -27.7410   -4.5290  -31.3390 N   0  0  0  0  0  0  0  0  0  0  0  0
  -28.4240   -5.1320  -30.3820 N   0  0  0  0  0  0  0  0  0  0  0  0
  -28.9480   -4.5020  -29.2720 C   0  0  0  0  0  0  0  0  0  0  0  0
  -29.6260   -5.0440  -28.4140 O   0  0  0  0  0  0  0  0  0  0  0  0
  -28.5820   -3.0360  -28.9400 C   0  0  0  0  0  0  0  0  0  0  0  0
  -28.9150   -8.9520  -30.5890 C   0  0  1  0  0  0  0  0  0  0  0  0
  -28.8990   -9.7500  -29.3020 C   0  0  0  0  0  0  0  0  0  0  0  0
  -28.0570  -10.8400  -29.4050 O   0  0  0  0  0  0  0  0  0  0  0  0
  -28.4390  -11.6930  -30.4270 C   0  0  0  0  0  0  0  0  0  0  0  0
  -28.4330  -11.0030  -31.7620 C   0  0  0  0  0  0  0  0  0  0  0  0
  -29.4030   -9.8650  -31.6930 C   0  0  0  0  0  0  0  0  0  0  0  0
  -29.1590   -2.1220  -30.0160 C   0  0  0  0  0  0  0  0  0  0  0  0
  1  2  2  0
  1  6  1  0
  1  3  1  0
  2  4  1  0
 10  3  1  1
  4  5  2  0
  5  6  1  0
  6  7  1  0
  7  9  1  0
  7  8  2  0
 10 15  1  0
 10 11  1  0
 11 12  1  0
 12 13  1  0
 13 14  1  0
 14 15  1  0
  9 16  1  0
M  END
>  <name>  (535) 
Car Nac Nd0 Car Nac Nac Cs2 .=O Cs3 C3r C3r O_a C3r C3r C3r Cs3

>  <indices>  (535) 
[0, 1, 2]

>  <tasks>  (535) 
probe_placing close_aromatic_ring close_aromatic_ring close_aromatic_ring ring_built build_to_Nac build_DB_to_Cs2 build_SB_to_Cs2 build_to_Nd0 close_aliphatic_ring close_aliphatic_ring close_aliphatic_ring close_aliphatic_ring close_aliphatic_ring

>  <prot_clashes>  (535) 
4

>  <NBS phar>  (535) 
0.24000000000000005

>  <NBS_non-phar>  (535) 
0.5142335891723633

>  <NBS>  (535) 
0.7542335891723633

>  <source_stage>  (535) 
scored

>  <source_iter>  (535) 
13

>  <source_parent_mol>  (535) 
2

>  <source_scenario>  (535) 
1 2 3 1 7 1 0 3 0 1 3 1 2

>  <source_rank_in_scored_call>  (535) 
2

>  <source_current_task>  (535) 
no_task

>  <scenario>  (535) 
1 2 3 1 7 1 0 3 0 1 3 1

>  <protected_ring_attachments>  (535) 
3,1,0,2|1,0,2;4,5,0,2|5,0,2;11,10,9,2|10,9,2;13,14,9,2|14,9,2

>  <current_task>  (535) 
no_task

>  <rotatable_bond_torsions>  (535) 
1,0,2,9;0,2,9,10;0,5,6,8

>  <reason_to_skip>  (535) 
global_duplicate

>  <global_duplicate_rmsd>  (535) 
0.0

>  <global_duplicate_old_source_iter>  (535) 
12

>  <global_duplicate_old_source_parent_mol>  (535) 
1

>  <global_duplicate_old_index>  (535) 
NA

>  <global_duplicate_rotatable_bond_torsions>  (535) 
1,0,2,9;0,2,9,10;0,5,6,8

>  <global_duplicate_old_rotatable_bond_torsions>  (535) 
1,0,2,9;0,2,9,10;0,5,6,8

>  <global_duplicate_last_growth_torsion>  (535) 
(11, 12, 13, 14)

>  <global_duplicate_protected_ring_attachments>  (535) 
3,1,0,2|1,0,2;4,5,0,2|5,0,2;11,10,9,2|10,9,2;13,14,9,2|14,9,2

>  <global_duplicate_old_last_growth_torsion>  (535) 
(11, 12, 13, 14)

>  <global_duplicate_old_protected_ring_attachments>  (535) 
3,1,0,2|1,0,2;4,5,0,2|5,0,2;11,10,9,2|10,9,2;13,14,9,2|14,9,2

$$$$

     RDKit          3D

 16 17  0  0  0  0  0  0  0  0999 V2000
  -28.3810   -6.5260  -30.7090 C   0  0  0  0  0  0  0  0  0  0  0  0
  -27.9070   -6.7880  -31.9620 N   0  0  0  0  0  0  0  0  0  0  0  0
  -28.8960   -7.6380  -29.8420 N   0  0  0  0  0  0  0  0  0  0  0  0
  -27.4790   -5.6380  -32.5070 C   0  0  0  0  0  0  0  0  0  0  0  0
  -27.6960   -4.6660  -31.5770 N   0  0  0  0  0  0  0  0  0  0  0  0
  -28.2350   -5.2040  -30.4980 N   0  0  0  0  0  0  0  0  0  0  0  0
  -28.5610   -4.5090  -29.3510 C   0  0  0  0  0  0  0  0  0  0  0  0
  -29.1100   -4.9900  -28.3740 O   0  0  0  0  0  0  0  0  0  0  0  0
  -28.1080   -3.0430  -29.1520 C   0  0  0  0  0  0  0  0  0  0  0  0
  -28.8560   -9.0100  -30.4430 C   0  0  1  0  0  0  0  0  0  0  0  0
  -28.6600   -9.7520  -29.1370 C   0  0  0  0  0  0  0  0  0  0  0  0
  -27.8740  -10.8730  -29.3180 O   0  0  0  0  0  0  0  0  0  0  0  0
  -28.4350  -11.7560  -30.2260 C   0  0  0  0  0  0  0  0  0  0  0  0
  -28.6210  -11.1250  -31.5770 C   0  0  0  0  0  0  0  0  0  0  0  0
  -29.5360   -9.9520  -31.4120 C   0  0  0  0  0  0  0  0  0  0  0  0
  -29.1890   -2.2100  -28.5430 C   0  0  0  0  0  0  0  0  0  0  0  0
  1  2  2  0
  1  6  1  0
  1  3  1  0
  2  4  1  0
 10  3  1  1
  4  5  2  0
  5  6  1  0
  6  7  1  0
  7  9  1  0
  7  8  2  0
 10 15  1  0
 10 11  1  0
 11 12  1  0
 12 13  1  0
 13 14  1  0
 14 15  1  0
  9 16  1  0
M  END
>  <name>  (536) 
Car Nac Nd0 Car Nac Nac Cs2 .=O Cs3 C3r C3r O_a C3r C3r C3r Cs3

>  <indices>  (536) 
[0, 1, 2]

>  <tasks>  (536) 
probe_placing close_aromatic_ring close_aromatic_ring close_aromatic_ring ring_built build_to_Nac build_DB_to_Cs2 build_SB_to_Cs2 build_to_Nd0 close_aliphatic_ring close_aliphatic_ring close_aliphatic_ring close_aliphatic_ring close_aliphatic_ring

>  <prot_clashes>  (536) 
7

>  <NBS phar>  (536) 
0.22000000000000003

>  <NBS_non-phar>  (536) 
0.45019519329071045

>  <NBS>  (536) 
0.6701951932907104

>  <source_stage>  (536) 
scored

>  <source_iter>  (536) 
13

>  <source_parent_mol>  (536) 
2

>  <source_scenario>  (536) 
1 2 3 1 7 1 0 3 0 1 3 1 2

>  <source_rank_in_scored_call>  (536) 
8

>  <source_current_task>  (536) 
no_task

>  <scenario>  (536) 
1 2 3 1 7 1 0 3 0 1 3 1

>  <protected_ring_attachments>  (536) 
3,1,0,2|1,0,2;4,5,0,2|5,0,2;11,10,9,2|10,9,2;13,14,9,2|14,9,2

>  <current_task>  (536) 
no_task

>  <rotatable_bond_torsions>  (536) 
1,0,2,9;0,2,9,10;0,5,6,8

>  <reason_to_skip>  (536) 
global_duplicate

>  <global_duplicate_rmsd>  (536) 
0.0

>  <global_duplicate_old_source_iter>  (536) 
12

>  <global_duplicate_old_source_parent_mol>  (536) 
1

>  <global_duplicate_old_index>  (536) 
NA

>  <global_duplicate_rotatable_bond_torsions>  (536) 
1,0,2,9;0,2,9,10;0,5,6,8

>  <global_duplicate_old_rotatable_bond_torsions>  (536) 
1,0,2,9;0,2,9,10;0,5,6,8

>  <global_duplicate_last_growth_torsion>  (536) 
(11, 12, 13, 14)

>  <global_duplicate_protected_ring_attachments>  (536) 
3,1,0,2|1,0,2;4,5,0,2|5,0,2;11,10,9,2|10,9,2;13,14,9,2|14,9,2

>  <global_duplicate_old_last_growth_torsion>  (536) 
(11, 12, 13, 14)

>  <global_duplicate_old_protected_ring_attachments>  (536) 
3,1,0,2|1,0,2;4,5,0,2|5,0,2;11,10,9,2|10,9,2;13,14,9,2|14,9,2

$$$$

     RDKit          3D

 16 17  0  0  0  0  0  0  0  0999 V2000
  -28.4110   -6.4730  -30.7160 C   0  0  0  0  0  0  0  0  0  0  0  0
  -27.8520   -6.8200  -31.9120 N   0  0  0  0  0  0  0  0  0  0  0  0
  -28.9710   -7.5260  -29.8040 N   0  0  0  0  0  0  0  0  0  0  0  0
  -27.4000   -5.7070  -32.5130 C   0  0  0  0  0  0  0  0  0  0  0  0
  -27.6880   -4.6730  -31.6740 N   0  0  0  0  0  0  0  0  0  0  0  0
  -28.2930   -5.1370  -30.5960 N   0  0  0  0  0  0  0  0  0  0  0  0
  -28.7010   -4.3640  -29.5280 C   0  0  0  0  0  0  0  0  0  0  0  0
  -29.3090   -4.7800  -28.5550 O   0  0  0  0  0  0  0  0  0  0  0  0
  -28.2770   -2.8810  -29.4090 C   0  0  0  0  0  0  0  0  0  0  0  0
  -28.8770   -8.9370  -30.2960 C   0  0  1  0  0  0  0  0  0  0  0  0
  -28.7600   -9.5780  -28.9290 C   0  0  0  0  0  0  0  0  0  0  0  0
  -27.9530  -10.6970  -28.9730 O   0  0  0  0  0  0  0  0  0  0  0  0
  -28.4430  -11.6530  -29.8480 C   0  0  0  0  0  0  0  0  0  0  0  0
  -28.5460  -11.1270  -31.2520 C   0  0  0  0  0  0  0  0  0  0  0  0
  -29.4820   -9.9590  -31.2350 C   0  0  0  0  0  0  0  0  0  0  0  0
  -29.3780   -1.8860  -29.6320 C   0  0  0  0  0  0  0  0  0  0  0  0
  1  2  2  0
  1  6  1  0
  1  3  1  0
  2  4  1  0
 10  3  1  1
  4  5  2  0
  5  6  1  0
  6  7  1  0
  7  9  1  0
  7  8  2  0
 10 15  1  0
 10 11  1  0
 11 12  1  0
 12 13  1  0
 13 14  1  0
 14 15  1  0
  9 16  1  0
M  END
>  <name>  (537) 
Car Nac Nd0 Car Nac Nac Cs2 .=O Cs3 C3r C3r O_a C3r C3r C3r Cs3

>  <indices>  (537) 
[0, 1, 2]

>  <tasks>  (537) 
probe_placing close_aromatic_ring close_aromatic_ring close_aromatic_ring ring_built build_to_Nac build_DB_to_Cs2 build_SB_to_Cs2 build_to_Nd0 close_aliphatic_ring close_aliphatic_ring close_aliphatic_ring close_aliphatic_ring close_aliphatic_ring

>  <prot_clashes>  (537) 
7

>  <NBS phar>  (537) 
0.22000000000000003

>  <NBS_non-phar>  (537) 
0.416118860244751

>  <NBS>  (537) 
0.636118860244751

>  <source_stage>  (537) 
scored

>  <source_iter>  (537) 
13

>  <source_parent_mol>  (537) 
2

>  <source_scenario>  (537) 
1 2 3 1 7 1 0 3 0 1 3 1 2

>  <source_rank_in_scored_call>  (537) 
10

>  <source_current_task>  (537) 
no_task

>  <scenario>  (537) 
1 2 3 1 7 1 0 3 0 1 3 1

>  <protected_ring_attachments>  (537) 
3,1,0,2|1,0,2;4,5,0,2|5,0,2;11,10,9,2|10,9,2;13,14,9,2|14,9,2

>  <current_task>  (537) 
no_task

>  <rotatable_bond_torsions>  (537) 
1,0,2,9;0,2,9,10;0,5,6,8

>  <reason_to_skip>  (537) 
global_duplicate

>  <global_duplicate_rmsd>  (537) 
0.0

>  <global_duplicate_old_source_iter>  (537) 
12

>  <global_duplicate_old_source_parent_mol>  (537) 
1

>  <global_duplicate_old_index>  (537) 
NA

>  <global_duplicate_rotatable_bond_torsions>  (537) 
1,0,2,9;0,2,9,10;0,5,6,8

>  <global_duplicate_old_rotatable_bond_torsions>  (537) 
1,0,2,9;0,2,9,10;0,5,6,8

>  <global_duplicate_last_growth_torsion>  (537) 
(11, 12, 13, 14)

>  <global_duplicate_protected_ring_attachments>  (537) 
3,1,0,2|1,0,2;4,5,0,2|5,0,2;11,10,9,2|10,9,2;13,14,9,2|14,9,2

>  <global_duplicate_old_last_growth_torsion>  (537) 
(11, 12, 13, 14)

>  <global_duplicate_old_protected_ring_attachments>  (537) 
3,1,0,2|1,0,2;4,5,0,2|5,0,2;11,10,9,2|10,9,2;13,14,9,2|14,9,2

$$$$

     RDKit          3D

 16 17  0  0  0  0  0  0  0  0999 V2000
  -28.6580   -6.5360  -30.6420 C   0  0  0  0  0  0  0  0  0  0  0  0
  -28.0410   -6.7470  -31.8410 N   0  0  0  0  0  0  0  0  0  0  0  0
  -29.1910   -7.6920  -29.8460 N   0  0  0  0  0  0  0  0  0  0  0  0
  -27.6300   -5.5640  -32.3250 C   0  0  0  0  0  0  0  0  0  0  0  0
  -28.0030   -4.6230  -31.4130 N   0  0  0  0  0  0  0  0  0  0  0  0
  -28.6180   -5.2110  -30.4030 N   0  0  0  0  0  0  0  0  0  0  0  0
  -29.1040   -4.5560  -29.2890 C   0  0  0  0  0  0  0  0  0  0  0  0
  -29.7210   -5.0870  -28.3800 O   0  0  0  0  0  0  0  0  0  0  0  0
  -28.7660   -3.0700  -29.0280 C   0  0  0  0  0  0  0  0  0  0  0  0
  -29.0030   -9.0480  -30.4530 C   0  0  1  0  0  0  0  0  0  0  0  0
  -28.8980   -9.7990  -29.1420 C   0  0  0  0  0  0  0  0  0  0  0  0
  -28.0300  -10.8670  -29.2510 O   0  0  0  0  0  0  0  0  0  0  0  0
  -28.4360  -11.7670  -30.2230 C   0  0  0  0  0  0  0  0  0  0  0  0
  -28.5190  -11.1250  -31.5790 C   0  0  0  0  0  0  0  0  0  0  0  0
  -29.5180  -10.0140  -31.4990 C   0  0  0  0  0  0  0  0  0  0  0  0
  -28.8420   -2.1670  -30.2610 C   0  0  0  0  0  0  0  0  0  0  0  0
  1  2  2  0
  1  6  1  0
  1  3  1  0
  2  4  1  0
 10  3  1  1
  4  5  2  0
  5  6  1  0
  6  7  1  0
  7  9  1  0
  7  8  2  0
 10 15  1  0
 10 11  1  0
 11 12  1  0
 12 13  1  0
 13 14  1  0
 14 15  1  0
  9 16  1  0
M  END
>  <name>  (538) 
Car Nac Nd0 Car Nac Nac Cs2 .=O Cs3 C3r C3r O_a C3r C3r C3r Cs3

>  <indices>  (538) 
[0, 1, 2]

>  <tasks>  (538) 
probe_placing close_aromatic_ring close_aromatic_ring close_aromatic_ring ring_built build_to_Nac build_DB_to_Cs2 build_SB_to_Cs2 build_to_Nd0 close_aliphatic_ring close_aliphatic_ring close_aliphatic_ring close_aliphatic_ring close_aliphatic_ring

>  <prot_clashes>  (538) 
5

>  <NBS phar>  (538) 
0.13999999999999999

>  <NBS_non-phar>  (538) 
0.45114660263061523

>  <NBS>  (538) 
0.5911466026306152

>  <source_stage>  (538) 
scored

>  <source_iter>  (538) 
13

>  <source_parent_mol>  (538) 
2

>  <source_scenario>  (538) 
1 2 3 1 7 1 0 3 0 1 3 1 2

>  <source_rank_in_scored_call>  (538) 
12

>  <source_current_task>  (538) 
no_task

>  <scenario>  (538) 
1 2 3 1 7 1 0 3 0 1 3 1

>  <protected_ring_attachments>  (538) 
3,1,0,2|1,0,2;4,5,0,2|5,0,2;11,10,9,2|10,9,2;13,14,9,2|14,9,2

>  <current_task>  (538) 
no_task

>  <rotatable_bond_torsions>  (538) 
1,0,2,9;0,2,9,10;0,5,6,8

>  <reason_to_skip>  (538) 
global_duplicate

>  <global_duplicate_rmsd>  (538) 
0.0

>  <global_duplicate_old_source_iter>  (538) 
12

>  <global_duplicate_old_source_parent_mol>  (538) 
1

>  <global_duplicate_old_index>  (538) 
NA

>  <global_duplicate_rotatable_bond_torsions>  (538) 
1,0,2,9;0,2,9,10;0,5,6,8

>  <global_duplicate_old_rotatable_bond_torsions>  (538) 
1,0,2,9;0,2,9,10;0,5,6,8

>  <global_duplicate_last_growth_torsion>  (538) 
(11, 12, 13, 14)

>  <global_duplicate_protected_ring_attachments>  (538) 
3,1,0,2|1,0,2;4,5,0,2|5,0,2;11,10,9,2|10,9,2;13,14,9,2|14,9,2

>  <global_duplicate_old_last_growth_torsion>  (538) 
(11, 12, 13, 14)

>  <global_duplicate_old_protected_ring_attachments>  (538) 
3,1,0,2|1,0,2;4,5,0,2|5,0,2;11,10,9,2|10,9,2;13,14,9,2|14,9,2

$$$$

     RDKit          3D

 16 17  0  0  0  0  0  0  0  0999 V2000
  -28.4660   -6.4310  -30.6740 C   0  0  0  0  0  0  0  0  0  0  0  0
  -27.9320   -6.8180  -31.8690 N   0  0  0  0  0  0  0  0  0  0  0  0
  -28.9980   -7.4520  -29.7110 N   0  0  0  0  0  0  0  0  0  0  0  0
  -27.5010   -5.7250  -32.5200 C   0  0  0  0  0  0  0  0  0  0  0  0
  -27.7770   -4.6630  -31.7140 N   0  0  0  0  0  0  0  0  0  0  0  0
  -28.3540   -5.0900  -30.6060 N   0  0  0  0  0  0  0  0  0  0  0  0
  -28.7430   -4.2810  -29.5580 C   0  0  0  0  0  0  0  0  0  0  0  0
  -29.3260   -4.6650  -28.5570 O   0  0  0  0  0  0  0  0  0  0  0  0
  -28.3270   -2.7920  -29.5030 C   0  0  0  0  0  0  0  0  0  0  0  0
  -28.9070   -8.8800  -30.1530 C   0  0  1  0  0  0  0  0  0  0  0  0
  -28.7540   -9.4690  -28.7660 C   0  0  0  0  0  0  0  0  0  0  0  0
  -27.9410  -10.5850  -28.7880 O   0  0  0  0  0  0  0  0  0  0  0  0
  -28.4440  -11.5750  -29.6150 C   0  0  0  0  0  0  0  0  0  0  0  0
  -28.5820  -11.1020  -31.0350 C   0  0  0  0  0  0  0  0  0  0  0  0
  -29.5250   -9.9400  -31.0400 C   0  0  0  0  0  0  0  0  0  0  0  0
  -29.4730   -1.8520  -29.2380 C   0  0  0  0  0  0  0  0  0  0  0  0
  1  2  2  0
  1  6  1  0
  1  3  1  0
  2  4  1  0
 10  3  1  1
  4  5  2  0
  5  6  1  0
  6  7  1  0
  7  9  1  0
  7  8  2  0
 10 15  1  0
 10 11  1  0
 11 12  1  0
 12 13  1  0
 13 14  1  0
 14 15  1  0
  9 16  1  0
M  END
>  <name>  (539) 
Car Nac Nd0 Car Nac Nac Cs2 .=O Cs3 C3r C3r O_a C3r C3r C3r Cs3

>  <indices>  (539) 
[0, 1, 2]

>  <tasks>  (539) 
probe_placing close_aromatic_ring close_aromatic_ring close_aromatic_ring ring_built build_to_Nac build_DB_to_Cs2 build_SB_to_Cs2 build_to_Nd0 close_aliphatic_ring close_aliphatic_ring close_aliphatic_ring close_aliphatic_ring close_aliphatic_ring

>  <prot_clashes>  (539) 
10

>  <NBS phar>  (539) 
0.1

>  <NBS_non-phar>  (539) 
0.4416393041610718

>  <NBS>  (539) 
0.5416393041610718

>  <source_stage>  (539) 
scored

>  <source_iter>  (539) 
13

>  <source_parent_mol>  (539) 
2

>  <source_scenario>  (539) 
1 2 3 1 7 1 0 3 0 1 3 1 2

>  <source_rank_in_scored_call>  (539) 
31

>  <source_current_task>  (539) 
no_task

>  <scenario>  (539) 
1 2 3 1 7 1 0 3 0 1 3 1

>  <protected_ring_attachments>  (539) 
3,1,0,2|1,0,2;4,5,0,2|5,0,2;11,10,9,2|10,9,2;13,14,9,2|14,9,2

>  <current_task>  (539) 
no_task

>  <rotatable_bond_torsions>  (539) 
1,0,2,9;0,2,9,10;0,5,6,8

>  <reason_to_skip>  (539) 
global_duplicate

>  <global_duplicate_rmsd>  (539) 
0.0

>  <global_duplicate_old_source_iter>  (539) 
12

>  <global_duplicate_old_source_parent_mol>  (539) 
1

>  <global_duplicate_old_index>  (539) 
NA

>  <global_duplicate_rotatable_bond_torsions>  (539) 
1,0,2,9;0,2,9,10;0,5,6,8

>  <global_duplicate_old_rotatable_bond_torsions>  (539) 
1,0,2,9;0,2,9,10;0,5,6,8

>  <global_duplicate_last_growth_torsion>  (539) 
(11, 12, 13, 14)

>  <global_duplicate_protected_ring_attachments>  (539) 
3,1,0,2|1,0,2;4,5,0,2|5,0,2;11,10,9,2|10,9,2;13,14,9,2|14,9,2

>  <global_duplicate_old_last_growth_torsion>  (539) 
(11, 12, 13, 14)

>  <global_duplicate_old_protected_ring_attachments>  (539) 
3,1,0,2|1,0,2;4,5,0,2|5,0,2;11,10,9,2|10,9,2;13,14,9,2|14,9,2

$$$$

     RDKit          3D

 16 17  0  0  0  0  0  0  0  0999 V2000
  -28.5050   -6.5880  -30.7020 C   0  0  0  0  0  0  0  0  0  0  0  0
  -28.0230   -6.8450  -31.9520 N   0  0  0  0  0  0  0  0  0  0  0  0
  -28.9910   -7.7090  -29.8280 N   0  0  0  0  0  0  0  0  0  0  0  0
  -27.6240   -5.6870  -32.5040 C   0  0  0  0  0  0  0  0  0  0  0  0
  -27.8680   -4.7170  -31.5800 N   0  0  0  0  0  0  0  0  0  0  0  0
  -28.3950   -5.2620  -30.4990 N   0  0  0  0  0  0  0  0  0  0  0  0
  -28.7410   -4.5690  -29.3560 C   0  0  0  0  0  0  0  0  0  0  0  0
  -29.2780   -5.0590  -28.3770 O   0  0  0  0  0  0  0  0  0  0  0  0
  -28.3270   -3.0900  -29.1650 C   0  0  0  0  0  0  0  0  0  0  0  0
  -28.9140   -9.0820  -30.4210 C   0  0  1  0  0  0  0  0  0  0  0  0
  -28.7000   -9.8110  -29.1100 C   0  0  0  0  0  0  0  0  0  0  0  0
  -27.8840  -10.9120  -29.2830 O   0  0  0  0  0  0  0  0  0  0  0  0
  -28.4200  -11.8150  -30.1870 C   0  0  0  0  0  0  0  0  0  0  0  0
  -28.6210  -11.1970  -31.5420 C   0  0  0  0  0  0  0  0  0  0  0  0
  -29.5670  -10.0490  -31.3850 C   0  0  0  0  0  0  0  0  0  0  0  0
  -29.1920   -2.2840  -28.2230 C   0  0  0  0  0  0  0  0  0  0  0  0
  1  2  2  0
  1  6  1  0
  1  3  1  0
  2  4  1  0
 10  3  1  1
  4  5  2  0
  5  6  1  0
  6  7  1  0
  7  9  1  0
  7  8  2  0
 10 15  1  0
 10 11  1  0
 11 12  1  0
 12 13  1  0
 13 14  1  0
 14 15  1  0
  9 16  1  0
M  END
>  <name>  (540) 
Car Nac Nd0 Car Nac Nac Cs2 .=O Cs3 C3r C3r O_a C3r C3r C3r Cs3

>  <indices>  (540) 
[0, 1, 2]

>  <tasks>  (540) 
probe_placing close_aromatic_ring close_aromatic_ring close_aromatic_ring ring_built build_to_Nac build_DB_to_Cs2 build_SB_to_Cs2 build_to_Nd0 close_aliphatic_ring close_aliphatic_ring close_aliphatic_ring close_aliphatic_ring close_aliphatic_ring

>  <prot_clashes>  (540) 
8

>  <NBS phar>  (540) 
0.12

>  <NBS_non-phar>  (540) 
0.41234561800956726

>  <NBS>  (540) 
0.5323456180095673

>  <source_stage>  (540) 
scored

>  <source_iter>  (540) 
13

>  <source_parent_mol>  (540) 
2

>  <source_scenario>  (540) 
1 2 3 1 7 1 0 3 0 1 3 1 2

>  <source_rank_in_scored_call>  (540) 
42

>  <source_current_task>  (540) 
no_task

>  <scenario>  (540) 
1 2 3 1 7 1 0 3 0 1 3 1

>  <protected_ring_attachments>  (540) 
3,1,0,2|1,0,2;4,5,0,2|5,0,2;11,10,9,2|10,9,2;13,14,9,2|14,9,2

>  <current_task>  (540) 
no_task

>  <rotatable_bond_torsions>  (540) 
1,0,2,9;0,2,9,10;0,5,6,8

>  <reason_to_skip>  (540) 
global_duplicate

>  <global_duplicate_rmsd>  (540) 
0.0

>  <global_duplicate_old_source_iter>  (540) 
12

>  <global_duplicate_old_source_parent_mol>  (540) 
1

>  <global_duplicate_old_index>  (540) 
NA

>  <global_duplicate_rotatable_bond_torsions>  (540) 
1,0,2,9;0,2,9,10;0,5,6,8

>  <global_duplicate_old_rotatable_bond_torsions>  (540) 
1,0,2,9;0,2,9,10;0,5,6,8

>  <global_duplicate_last_growth_torsion>  (540) 
(11, 12, 13, 14)

>  <global_duplicate_protected_ring_attachments>  (540) 
3,1,0,2|1,0,2;4,5,0,2|5,0,2;11,10,9,2|10,9,2;13,14,9,2|14,9,2

>  <global_duplicate_old_last_growth_torsion>  (540) 
(11, 12, 13, 14)

>  <global_duplicate_old_protected_ring_attachments>  (540) 
3,1,0,2|1,0,2;4,5,0,2|5,0,2;11,10,9,2|10,9,2;13,14,9,2|14,9,2

$$$$

     RDKit          3D

 16 17  0  0  0  0  0  0  0  0999 V2000
  -28.6810   -6.5790  -30.6400 C   0  0  0  0  0  0  0  0  0  0  0  0
  -28.0770   -6.8020  -31.8430 N   0  0  0  0  0  0  0  0  0  0  0  0
  -29.1880   -7.7290  -29.8180 N   0  0  0  0  0  0  0  0  0  0  0  0
  -27.6880   -5.6210  -32.3520 C   0  0  0  0  0  0  0  0  0  0  0  0
  -28.0610   -4.6710  -31.4500 N   0  0  0  0  0  0  0  0  0  0  0  0
  -28.6550   -5.2500  -30.4230 N   0  0  0  0  0  0  0  0  0  0  0  0
  -29.1360   -4.5840  -29.3130 C   0  0  0  0  0  0  0  0  0  0  0  0
  -29.7340   -5.1080  -28.3880 O   0  0  0  0  0  0  0  0  0  0  0  0
  -28.8140   -3.0890  -29.0800 C   0  0  0  0  0  0  0  0  0  0  0  0
  -28.9910   -9.0920  -30.4060 C   0  0  1  0  0  0  0  0  0  0  0  0
  -28.8590   -9.8200  -29.0850 C   0  0  0  0  0  0  0  0  0  0  0  0
  -27.9780  -10.8790  -29.1880 O   0  0  0  0  0  0  0  0  0  0  0  0
  -28.3860  -11.7990  -30.1390 C   0  0  0  0  0  0  0  0  0  0  0  0
  -28.4950  -11.1810  -31.5050 C   0  0  0  0  0  0  0  0  0  0  0  0
  -29.5070  -10.0810  -31.4290 C   0  0  0  0  0  0  0  0  0  0  0  0
  -27.5610   -2.9080  -28.2360 C   0  0  0  0  0  0  0  0  0  0  0  0
  1  2  2  0
  1  6  1  0
  1  3  1  0
  2  4  1  0
 10  3  1  1
  4  5  2  0
  5  6  1  0
  6  7  1  0
  7  9  1  0
  7  8  2  0
 10 15  1  0
 10 11  1  0
 11 12  1  0
 12 13  1  0
 13 14  1  0
 14 15  1  0
  9 16  1  0
M  END
>  <name>  (541) 
Car Nac Nd0 Car Nac Nac Cs2 .=O Cs3 C3r C3r O_a C3r C3r C3r Cs3

>  <indices>  (541) 
[0, 1, 2]

>  <tasks>  (541) 
probe_placing close_aromatic_ring close_aromatic_ring close_aromatic_ring ring_built build_to_Nac build_DB_to_Cs2 build_SB_to_Cs2 build_to_Nd0 close_aliphatic_ring close_aliphatic_ring close_aliphatic_ring close_aliphatic_ring close_aliphatic_ring

>  <prot_clashes>  (541) 
6

>  <NBS phar>  (541) 
0.12

>  <NBS_non-phar>  (541) 
0.40726494789123535

>  <NBS>  (541) 
0.5272649478912353

>  <source_stage>  (541) 
scored

>  <source_iter>  (541) 
13

>  <source_parent_mol>  (541) 
2

>  <source_scenario>  (541) 
1 2 3 1 7 1 0 3 0 1 3 1 2

>  <source_rank_in_scored_call>  (541) 
45

>  <source_current_task>  (541) 
no_task

>  <scenario>  (541) 
1 2 3 1 7 1 0 3 0 1 3 1

>  <protected_ring_attachments>  (541) 
3,1,0,2|1,0,2;4,5,0,2|5,0,2;11,10,9,2|10,9,2;13,14,9,2|14,9,2

>  <current_task>  (541) 
no_task

>  <rotatable_bond_torsions>  (541) 
1,0,2,9;0,2,9,10;0,5,6,8

>  <reason_to_skip>  (541) 
global_duplicate

>  <global_duplicate_rmsd>  (541) 
0.0

>  <global_duplicate_old_source_iter>  (541) 
12

>  <global_duplicate_old_source_parent_mol>  (541) 
1

>  <global_duplicate_old_index>  (541) 
NA

>  <global_duplicate_rotatable_bond_torsions>  (541) 
1,0,2,9;0,2,9,10;0,5,6,8

>  <global_duplicate_old_rotatable_bond_torsions>  (541) 
1,0,2,9;0,2,9,10;0,5,6,8

>  <global_duplicate_last_growth_torsion>  (541) 
(11, 12, 13, 14)

>  <global_duplicate_protected_ring_attachments>  (541) 
3,1,0,2|1,0,2;4,5,0,2|5,0,2;11,10,9,2|10,9,2;13,14,9,2|14,9,2

>  <global_duplicate_old_last_growth_torsion>  (541) 
(11, 12, 13, 14)

>  <global_duplicate_old_protected_ring_attachments>  (541) 
3,1,0,2|1,0,2;4,5,0,2|5,0,2;11,10,9,2|10,9,2;13,14,9,2|14,9,2

$$$$

     RDKit          3D

 16 17  0  0  0  0  0  0  0  0999 V2000
  -28.6320   -6.5460  -30.6530 C   0  0  0  0  0  0  0  0  0  0  0  0
  -27.9780   -6.7300  -31.8360 N   0  0  0  0  0  0  0  0  0  0  0  0
  -29.1800   -7.7210  -29.8950 N   0  0  0  0  0  0  0  0  0  0  0  0
  -27.5610   -5.5340  -32.2850 C   0  0  0  0  0  0  0  0  0  0  0  0
  -27.9680   -4.6150  -31.3660 N   0  0  0  0  0  0  0  0  0  0  0  0
  -28.6090   -5.2260  -30.3860 N   0  0  0  0  0  0  0  0  0  0  0  0
  -29.1330   -4.5980  -29.2750 C   0  0  0  0  0  0  0  0  0  0  0  0
  -29.7730   -5.1500  -28.3960 O   0  0  0  0  0  0  0  0  0  0  0  0
  -28.8130   -3.1140  -28.9740 C   0  0  0  0  0  0  0  0  0  0  0  0
  -28.9650   -9.0640  -30.5240 C   0  0  1  0  0  0  0  0  0  0  0  0
  -28.8940   -9.8400  -29.2250 C   0  0  0  0  0  0  0  0  0  0  0  0
  -28.0150  -10.9010  -29.3290 O   0  0  0  0  0  0  0  0  0  0  0  0
  -28.3860  -11.7830  -30.3300 C   0  0  0  0  0  0  0  0  0  0  0  0
  -28.4330  -11.1150  -31.6750 C   0  0  0  0  0  0  0  0  0  0  0  0
  -29.4420  -10.0120  -31.6030 C   0  0  0  0  0  0  0  0  0  0  0  0
  -27.4380   -2.8500  -28.4330 C   0  0  0  0  0  0  0  0  0  0  0  0
  1  2  2  0
  1  6  1  0
  1  3  1  0
  2  4  1  0
 10  3  1  1
  4  5  2  0
  5  6  1  0
  6  7  1  0
  7  9  1  0
  7  8  2  0
 10 15  1  0
 10 11  1  0
 11 12  1  0
 12 13  1  0
 13 14  1  0
 14 15  1  0
  9 16  1  0
M  END
>  <name>  (542) 
Car Nac Nd0 Car Nac Nac Cs2 .=O Cs3 C3r C3r O_a C3r C3r C3r Cs3

>  <indices>  (542) 
[0, 1, 2]

>  <tasks>  (542) 
probe_placing close_aromatic_ring close_aromatic_ring close_aromatic_ring ring_built build_to_Nac build_DB_to_Cs2 build_SB_to_Cs2 build_to_Nd0 close_aliphatic_ring close_aliphatic_ring close_aliphatic_ring close_aliphatic_ring close_aliphatic_ring

>  <prot_clashes>  (542) 
5

>  <NBS phar>  (542) 
0.1

>  <NBS_non-phar>  (542) 
0.41100841760635376

>  <NBS>  (542) 
0.5110084176063537

>  <source_stage>  (542) 
scored

>  <source_iter>  (542) 
13

>  <source_parent_mol>  (542) 
2

>  <source_scenario>  (542) 
1 2 3 1 7 1 0 3 0 1 3 1 2

>  <source_rank_in_scored_call>  (542) 
58

>  <source_current_task>  (542) 
no_task

>  <scenario>  (542) 
1 2 3 1 7 1 0 3 0 1 3 1

>  <protected_ring_attachments>  (542) 
3,1,0,2|1,0,2;4,5,0,2|5,0,2;11,10,9,2|10,9,2;13,14,9,2|14,9,2

>  <current_task>  (542) 
no_task

>  <rotatable_bond_torsions>  (542) 
1,0,2,9;0,2,9,10;0,5,6,8

>  <reason_to_skip>  (542) 
global_duplicate

>  <global_duplicate_rmsd>  (542) 
0.0

>  <global_duplicate_old_source_iter>  (542) 
12

>  <global_duplicate_old_source_parent_mol>  (542) 
1

>  <global_duplicate_old_index>  (542) 
NA

>  <global_duplicate_rotatable_bond_torsions>  (542) 
1,0,2,9;0,2,9,10;0,5,6,8

>  <global_duplicate_old_rotatable_bond_torsions>  (542) 
1,0,2,9;0,2,9,10;0,5,6,8

>  <global_duplicate_last_growth_torsion>  (542) 
(11, 12, 13, 14)

>  <global_duplicate_protected_ring_attachments>  (542) 
3,1,0,2|1,0,2;4,5,0,2|5,0,2;11,10,9,2|10,9,2;13,14,9,2|14,9,2

>  <global_duplicate_old_last_growth_torsion>  (542) 
(11, 12, 13, 14)

>  <global_duplicate_old_protected_ring_attachments>  (542) 
3,1,0,2|1,0,2;4,5,0,2|5,0,2;11,10,9,2|10,9,2;13,14,9,2|14,9,2

$$$$

     RDKit          3D

 16 17  0  0  0  0  0  0  0  0999 V2000
  -28.6500   -6.5740  -30.6500 C   0  0  0  0  0  0  0  0  0  0  0  0
  -28.0840   -6.8280  -31.8650 N   0  0  0  0  0  0  0  0  0  0  0  0
  -29.1550   -7.6990  -29.7940 N   0  0  0  0  0  0  0  0  0  0  0  0
  -27.6880   -5.6640  -32.4050 C   0  0  0  0  0  0  0  0  0  0  0  0
  -28.0170   -4.6920  -31.5100 N   0  0  0  0  0  0  0  0  0  0  0  0
  -28.5930   -5.2420  -30.4570 N   0  0  0  0  0  0  0  0  0  0  0  0
  -29.0290   -4.5490  -29.3460 C   0  0  0  0  0  0  0  0  0  0  0  0
  -29.6100   -5.0450  -28.3950 O   0  0  0  0  0  0  0  0  0  0  0  0
  -28.6720   -3.0570  -29.1470 C   0  0  0  0  0  0  0  0  0  0  0  0
  -29.0000   -9.0760  -30.3640 C   0  0  1  0  0  0  0  0  0  0  0  0
  -28.8450   -9.7850  -29.0350 C   0  0  0  0  0  0  0  0  0  0  0  0
  -27.9870  -10.8620  -29.1440 O   0  0  0  0  0  0  0  0  0  0  0  0
  -28.4390  -11.7900  -30.0680 C   0  0  0  0  0  0  0  0  0  0  0  0
  -28.5740  -11.1920  -31.4400 C   0  0  0  0  0  0  0  0  0  0  0  0
  -29.5630  -10.0720  -31.3550 C   0  0  0  0  0  0  0  0  0  0  0  0
  -29.1220   -2.4940  -27.8380 C   0  0  0  0  0  0  0  0  0  0  0  0
  1  2  2  0
  1  6  1  0
  1  3  1  0
  2  4  1  0
 10  3  1  1
  4  5  2  0
  5  6  1  0
  6  7  1  0
  7  9  1  0
  7  8  2  0
 10 15  1  0
 10 11  1  0
 11 12  1  0
 12 13  1  0
 13 14  1  0
 14 15  1  0
  9 16  1  0
M  END
>  <name>  (543) 
Car Nac Nd0 Car Nac Nac Cs2 .=O Cs3 C3r C3r O_a C3r C3r C3r Cs3

>  <indices>  (543) 
[0, 1, 2]

>  <tasks>  (543) 
probe_placing close_aromatic_ring close_aromatic_ring close_aromatic_ring ring_built build_to_Nac build_DB_to_Cs2 build_SB_to_Cs2 build_to_Nd0 close_aliphatic_ring close_aliphatic_ring close_aliphatic_ring close_aliphatic_ring close_aliphatic_ring

>  <prot_clashes>  (543) 
8

>  <NBS phar>  (543) 
0.12

>  <NBS_non-phar>  (543) 
0.3785526156425476

>  <NBS>  (543) 
0.4985526156425476

>  <source_stage>  (543) 
scored

>  <source_iter>  (543) 
13

>  <source_parent_mol>  (543) 
2

>  <source_scenario>  (543) 
1 2 3 1 7 1 0 3 0 1 3 1 2

>  <source_rank_in_scored_call>  (543) 
63

>  <source_current_task>  (543) 
no_task

>  <scenario>  (543) 
1 2 3 1 7 1 0 3 0 1 3 1

>  <protected_ring_attachments>  (543) 
3,1,0,2|1,0,2;4,5,0,2|5,0,2;11,10,9,2|10,9,2;13,14,9,2|14,9,2

>  <current_task>  (543) 
no_task

>  <rotatable_bond_torsions>  (543) 
1,0,2,9;0,2,9,10;0,5,6,8

>  <reason_to_skip>  (543) 
global_duplicate

>  <global_duplicate_rmsd>  (543) 
0.0

>  <global_duplicate_old_source_iter>  (543) 
12

>  <global_duplicate_old_source_parent_mol>  (543) 
1

>  <global_duplicate_old_index>  (543) 
NA

>  <global_duplicate_rotatable_bond_torsions>  (543) 
1,0,2,9;0,2,9,10;0,5,6,8

>  <global_duplicate_old_rotatable_bond_torsions>  (543) 
1,0,2,9;0,2,9,10;0,5,6,8

>  <global_duplicate_last_growth_torsion>  (543) 
(11, 12, 13, 14)

>  <global_duplicate_protected_ring_attachments>  (543) 
3,1,0,2|1,0,2;4,5,0,2|5,0,2;11,10,9,2|10,9,2;13,14,9,2|14,9,2

>  <global_duplicate_old_last_growth_torsion>  (543) 
(11, 12, 13, 14)

>  <global_duplicate_old_protected_ring_attachments>  (543) 
3,1,0,2|1,0,2;4,5,0,2|5,0,2;11,10,9,2|10,9,2;13,14,9,2|14,9,2

$$$$

     RDKit          3D

 16 17  0  0  0  0  0  0  0  0999 V2000
  -28.6640   -6.5650  -30.6550 C   0  0  0  0  0  0  0  0  0  0  0  0
  -28.0860   -6.8480  -31.8580 N   0  0  0  0  0  0  0  0  0  0  0  0
  -29.1730   -7.6710  -29.7760 N   0  0  0  0  0  0  0  0  0  0  0  0
  -27.6890   -5.6970  -32.4240 C   0  0  0  0  0  0  0  0  0  0  0  0
  -28.0310   -4.7030  -31.5570 N   0  0  0  0  0  0  0  0  0  0  0  0
  -28.6140   -5.2290  -30.4950 N   0  0  0  0  0  0  0  0  0  0  0  0
  -29.0640   -4.5090  -29.4060 C   0  0  0  0  0  0  0  0  0  0  0  0
  -29.6520   -4.9840  -28.4490 O   0  0  0  0  0  0  0  0  0  0  0  0
  -28.7150   -3.0110  -29.2430 C   0  0  0  0  0  0  0  0  0  0  0  0
  -29.0070   -9.0610  -30.3090 C   0  0  1  0  0  0  0  0  0  0  0  0
  -28.8620   -9.7350  -28.9600 C   0  0  0  0  0  0  0  0  0  0  0  0
  -27.9980  -10.8110  -29.0340 O   0  0  0  0  0  0  0  0  0  0  0  0
  -28.4380  -11.7640  -29.9380 C   0  0  0  0  0  0  0  0  0  0  0  0
  -28.5630  -11.2020  -31.3270 C   0  0  0  0  0  0  0  0  0  0  0  0
  -29.5570  -10.0840  -31.2790 C   0  0  0  0  0  0  0  0  0  0  0  0
  -28.8150   -2.6280  -27.8340 C   0  0  0  0  0  0  0  0  0  0  0  0
  1  2  2  0
  1  6  1  0
  1  3  1  0
  2  4  1  0
 10  3  1  1
  4  5  2  0
  5  6  1  0
  6  7  1  0
  7  9  1  0
  7  8  2  0
 10 15  1  0
 10 11  1  0
 11 12  1  0
 12 13  1  0
 13 14  1  0
 14 15  1  0
  9 16  1  0
M  END
>  <name>  (544) 
Car Nac Nd0 Car Nac Nac Cs2 .=O Cs3 C3r C3r O_a C3r C3r C3r Cs3

>  <indices>  (544) 
[0, 1, 2]

>  <tasks>  (544) 
probe_placing close_aromatic_ring close_aromatic_ring close_aromatic_ring ring_built build_to_Nac build_DB_to_Cs2 build_SB_to_Cs2 build_to_Nd0 close_aliphatic_ring close_aliphatic_ring close_aliphatic_ring close_aliphatic_ring close_aliphatic_ring

>  <prot_clashes>  (544) 
6

>  <NBS phar>  (544) 
0.04

>  <NBS_non-phar>  (544) 
0.4199536144733429

>  <NBS>  (544) 
0.4599536144733429

>  <source_stage>  (544) 
scored

>  <source_iter>  (544) 
13

>  <source_parent_mol>  (544) 
2

>  <source_scenario>  (544) 
1 2 3 1 7 1 0 3 0 1 3 1 2

>  <source_rank_in_scored_call>  (544) 
92

>  <source_current_task>  (544) 
no_task

>  <scenario>  (544) 
1 2 3 1 7 1 0 3 0 1 3 1

>  <protected_ring_attachments>  (544) 
3,1,0,2|1,0,2;4,5,0,2|5,0,2;11,10,9,2|10,9,2;13,14,9,2|14,9,2

>  <current_task>  (544) 
no_task

>  <rotatable_bond_torsions>  (544) 
1,0,2,9;0,2,9,10;0,5,6,8

>  <reason_to_skip>  (544) 
global_duplicate

>  <global_duplicate_rmsd>  (544) 
0.0

>  <global_duplicate_old_source_iter>  (544) 
12

>  <global_duplicate_old_source_parent_mol>  (544) 
1

>  <global_duplicate_old_index>  (544) 
NA

>  <global_duplicate_rotatable_bond_torsions>  (544) 
1,0,2,9;0,2,9,10;0,5,6,8

>  <global_duplicate_old_rotatable_bond_torsions>  (544) 
1,0,2,9;0,2,9,10;0,5,6,8

>  <global_duplicate_last_growth_torsion>  (544) 
(11, 12, 13, 14)

>  <global_duplicate_protected_ring_attachments>  (544) 
3,1,0,2|1,0,2;4,5,0,2|5,0,2;11,10,9,2|10,9,2;13,14,9,2|14,9,2

>  <global_duplicate_old_last_growth_torsion>  (544) 
(11, 12, 13, 14)

>  <global_duplicate_old_protected_ring_attachments>  (544) 
3,1,0,2|1,0,2;4,5,0,2|5,0,2;11,10,9,2|10,9,2;13,14,9,2|14,9,2

$$$$

     RDKit          3D

 16 17  0  0  0  0  0  0  0  0999 V2000
  -28.6750   -6.5890  -30.6410 C   0  0  0  0  0  0  0  0  0  0  0  0
  -28.0870   -6.8310  -31.8490 N   0  0  0  0  0  0  0  0  0  0  0  0
  -29.1880   -7.7240  -29.8030 N   0  0  0  0  0  0  0  0  0  0  0  0
  -27.6880   -5.6600  -32.3730 C   0  0  0  0  0  0  0  0  0  0  0  0
  -28.0390   -4.6970  -31.4760 N   0  0  0  0  0  0  0  0  0  0  0  0
  -28.6300   -5.2580  -30.4370 N   0  0  0  0  0  0  0  0  0  0  0  0
  -29.0890   -4.5760  -29.3290 C   0  0  0  0  0  0  0  0  0  0  0  0
  -29.6840   -5.0830  -28.3920 O   0  0  0  0  0  0  0  0  0  0  0  0
  -28.7460   -3.0830  -29.1130 C   0  0  0  0  0  0  0  0  0  0  0  0
  -29.0140   -9.0960  -30.3810 C   0  0  1  0  0  0  0  0  0  0  0  0
  -28.8780   -9.8130  -29.0540 C   0  0  0  0  0  0  0  0  0  0  0  0
  -28.0110  -10.8840  -29.1560 O   0  0  0  0  0  0  0  0  0  0  0  0
  -28.4410  -11.8080  -30.0950 C   0  0  0  0  0  0  0  0  0  0  0  0
  -28.5570  -11.2010  -31.4650 C   0  0  0  0  0  0  0  0  0  0  0  0
  -29.5540  -10.0870  -31.3880 C   0  0  0  0  0  0  0  0  0  0  0  0
  -27.8250   -2.8520  -27.9450 C   0  0  0  0  0  0  0  0  0  0  0  0
  1  2  2  0
  1  6  1  0
  1  3  1  0
  2  4  1  0
 10  3  1  1
  4  5  2  0
  5  6  1  0
  6  7  1  0
  7  9  1  0
  7  8  2  0
 10 15  1  0
 10 11  1  0
 11 12  1  0
 12 13  1  0
 13 14  1  0
 14 15  1  0
  9 16  1  0
M  END
>  <name>  (545) 
Car Nac Nd0 Car Nac Nac Cs2 .=O Cs3 C3r C3r O_a C3r C3r C3r Cs3

>  <indices>  (545) 
[0, 1, 2]

>  <tasks>  (545) 
probe_placing close_aromatic_ring close_aromatic_ring close_aromatic_ring ring_built build_to_Nac build_DB_to_Cs2 build_SB_to_Cs2 build_to_Nd0 close_aliphatic_ring close_aliphatic_ring close_aliphatic_ring close_aliphatic_ring close_aliphatic_ring

>  <prot_clashes>  (545) 
6

>  <NBS phar>  (545) 
0.1

>  <NBS_non-phar>  (545) 
0.3492240905761719

>  <NBS>  (545) 
0.44922409057617185

>  <source_stage>  (545) 
scored

>  <source_iter>  (545) 
13

>  <source_parent_mol>  (545) 
2

>  <source_scenario>  (545) 
1 2 3 1 7 1 0 3 0 1 3 1 2

>  <source_rank_in_scored_call>  (545) 
97

>  <source_current_task>  (545) 
no_task

>  <scenario>  (545) 
1 2 3 1 7 1 0 3 0 1 3 1

>  <protected_ring_attachments>  (545) 
3,1,0,2|1,0,2;4,5,0,2|5,0,2;11,10,9,2|10,9,2;13,14,9,2|14,9,2

>  <current_task>  (545) 
no_task

>  <rotatable_bond_torsions>  (545) 
1,0,2,9;0,2,9,10;0,5,6,8

>  <reason_to_skip>  (545) 
global_duplicate

>  <global_duplicate_rmsd>  (545) 
0.0

>  <global_duplicate_old_source_iter>  (545) 
12

>  <global_duplicate_old_source_parent_mol>  (545) 
1

>  <global_duplicate_old_index>  (545) 
NA

>  <global_duplicate_rotatable_bond_torsions>  (545) 
1,0,2,9;0,2,9,10;0,5,6,8

>  <global_duplicate_old_rotatable_bond_torsions>  (545) 
1,0,2,9;0,2,9,10;0,5,6,8

>  <global_duplicate_last_growth_torsion>  (545) 
(11, 12, 13, 14)

>  <global_duplicate_protected_ring_attachments>  (545) 
3,1,0,2|1,0,2;4,5,0,2|5,0,2;11,10,9,2|10,9,2;13,14,9,2|14,9,2

>  <global_duplicate_old_last_growth_torsion>  (545) 
(11, 12, 13, 14)

>  <global_duplicate_old_protected_ring_attachments>  (545) 
3,1,0,2|1,0,2;4,5,0,2|5,0,2;11,10,9,2|10,9,2;13,14,9,2|14,9,2

$$$$

     RDKit          3D

 16 17  0  0  0  0  0  0  0  0999 V2000
  -28.6810   -6.5700  -30.6510 C   0  0  0  0  0  0  0  0  0  0  0  0
  -28.0780   -6.8490  -31.8420 N   0  0  0  0  0  0  0  0  0  0  0  0
  -29.1880   -7.6800  -29.7760 N   0  0  0  0  0  0  0  0  0  0  0  0
  -27.6890   -5.6930  -32.4060 C   0  0  0  0  0  0  0  0  0  0  0  0
  -28.0620   -4.7020  -31.5490 N   0  0  0  0  0  0  0  0  0  0  0  0
  -28.6550   -5.2320  -30.4960 N   0  0  0  0  0  0  0  0  0  0  0  0
  -29.1350   -4.5150  -29.4180 C   0  0  0  0  0  0  0  0  0  0  0  0
  -29.7330   -4.9950  -28.4690 O   0  0  0  0  0  0  0  0  0  0  0  0
  -28.8130   -3.0110  -29.2550 C   0  0  0  0  0  0  0  0  0  0  0  0
  -28.9910   -9.0690  -30.3000 C   0  0  1  0  0  0  0  0  0  0  0  0
  -28.8590   -9.7350  -28.9460 C   0  0  0  0  0  0  0  0  0  0  0  0
  -27.9780  -10.7980  -29.0000 O   0  0  0  0  0  0  0  0  0  0  0  0
  -28.3860  -11.7610  -29.9070 C   0  0  0  0  0  0  0  0  0  0  0  0
  -28.4950  -11.2070  -31.3000 C   0  0  0  0  0  0  0  0  0  0  0  0
  -29.5070  -10.1050  -31.2750 C   0  0  0  0  0  0  0  0  0  0  0  0
  -28.5930   -2.6830  -27.8470 C   0  0  0  0  0  0  0  0  0  0  0  0
  1  2  2  0
  1  6  1  0
  1  3  1  0
  2  4  1  0
 10  3  1  1
  4  5  2  0
  5  6  1  0
  6  7  1  0
  7  9  1  0
  7  8  2  0
 10 15  1  0
 10 11  1  0
 11 12  1  0
 12 13  1  0
 13 14  1  0
 14 15  1  0
  9 16  1  0
M  END
>  <name>  (546) 
Car Nac Nd0 Car Nac Nac Cs2 .=O Cs3 C3r C3r O_a C3r C3r C3r Cs3

>  <indices>  (546) 
[0, 1, 2]

>  <tasks>  (546) 
probe_placing close_aromatic_ring close_aromatic_ring close_aromatic_ring ring_built build_to_Nac build_DB_to_Cs2 build_SB_to_Cs2 build_to_Nd0 close_aliphatic_ring close_aliphatic_ring close_aliphatic_ring close_aliphatic_ring close_aliphatic_ring

>  <prot_clashes>  (546) 
6

>  <NBS phar>  (546) 
0.02

>  <NBS_non-phar>  (546) 
0.41470444202423096

>  <NBS>  (546) 
0.434704442024231

>  <source_stage>  (546) 
scored

>  <source_iter>  (546) 
13

>  <source_parent_mol>  (546) 
2

>  <source_scenario>  (546) 
1 2 3 1 7 1 0 3 0 1 3 1 2

>  <source_rank_in_scored_call>  (546) 
103

>  <source_current_task>  (546) 
no_task

>  <scenario>  (546) 
1 2 3 1 7 1 0 3 0 1 3 1

>  <protected_ring_attachments>  (546) 
3,1,0,2|1,0,2;4,5,0,2|5,0,2;11,10,9,2|10,9,2;13,14,9,2|14,9,2

>  <current_task>  (546) 
no_task

>  <rotatable_bond_torsions>  (546) 
1,0,2,9;0,2,9,10;0,5,6,8

>  <reason_to_skip>  (546) 
global_duplicate

>  <global_duplicate_rmsd>  (546) 
0.0

>  <global_duplicate_old_source_iter>  (546) 
12

>  <global_duplicate_old_source_parent_mol>  (546) 
1

>  <global_duplicate_old_index>  (546) 
NA

>  <global_duplicate_rotatable_bond_torsions>  (546) 
1,0,2,9;0,2,9,10;0,5,6,8

>  <global_duplicate_old_rotatable_bond_torsions>  (546) 
1,0,2,9;0,2,9,10;0,5,6,8

>  <global_duplicate_last_growth_torsion>  (546) 
(11, 12, 13, 14)

>  <global_duplicate_protected_ring_attachments>  (546) 
3,1,0,2|1,0,2;4,5,0,2|5,0,2;11,10,9,2|10,9,2;13,14,9,2|14,9,2

>  <global_duplicate_old_last_growth_torsion>  (546) 
(11, 12, 13, 14)

>  <global_duplicate_old_protected_ring_attachments>  (546) 
3,1,0,2|1,0,2;4,5,0,2|5,0,2;11,10,9,2|10,9,2;13,14,9,2|14,9,2

$$$$

     RDKit          3D

 14 15  0  0  0  0  0  0  0  0999 V2000
  -28.4330   -6.5570  -30.7640 C   0  0  0  0  0  0  0  0  0  0  0  0
  -27.8860   -6.6640  -32.0100 N   0  0  0  0  0  0  0  0  0  0  0  0
  -28.7690   -7.7850  -29.9700 N   0  0  0  0  0  0  0  0  0  0  0  0
  -27.6500   -5.4290  -32.4820 C   0  0  0  0  0  0  0  0  0  0  0  0
  -28.0580   -4.5610  -31.5140 N   0  0  0  0  0  0  0  0  0  0  0  0
  -28.5260   -5.2410  -30.4840 N   0  0  0  0  0  0  0  0  0  0  0  0
  -28.9970   -4.6760  -29.3160 C   0  0  0  0  0  0  0  0  0  0  0  0
  -29.4810   -5.2980  -28.3840 O   0  0  0  0  0  0  0  0  0  0  0  0
  -28.8120   -3.1690  -29.0300 C   0  0  0  0  0  0  0  0  0  0  0  0
  -28.9120   -9.1100  -30.4140 C   0  0  2  0  0  0  0  0  0  0  0  0
  -28.0630  -10.0760  -29.5780 C   0  0  0  0  0  0  0  0  0  0  0  0
  -28.4930  -11.3390  -29.9120 O   0  0  0  0  0  0  0  0  0  0  0  0
  -29.2660  -11.3110  -31.0430 C   0  0  0  0  0  0  0  0  0  0  0  0
  -29.0840   -9.9280  -31.6630 C   0  0  0  0  0  0  0  0  0  0  0  0
  1  2  2  0
  1  6  1  0
  1  3  1  0
  2  4  1  0
 10  3  1  6
  4  5  2  0
  5  6  1  0
  6  7  1  0
  7  9  1  0
  7  8  2  0
 10 14  1  0
 10 11  1  0
 11 12  1  0
 12 13  1  0
 13 14  1  0
M  END
>  <name>  (547) 
Car Nac Nd0 Car Nac Nac Cs2 .=O Cs3 C3r C3r O_a C3r C3r

>  <indices>  (547) 
[0, 1, 2]

>  <tasks>  (547) 
probe_placing close_aromatic_ring close_aromatic_ring close_aromatic_ring ring_built build_to_Nac build_DB_to_Cs2 build_SB_to_Cs2 build_to_Nd0 close_aliphatic_ring close_aliphatic_ring close_aliphatic_ring

>  <prot_clashes>  (547) 
6

>  <NBS phar>  (547) 
0.22000000000000003

>  <NBS_non-phar>  (547) 
0.3727546419416155

>  <NBS>  (547) 
0.5927546419416155

>  <source_stage>  (547) 
scored

>  <source_iter>  (547) 
11

>  <source_parent_mol>  (547) 
2

>  <source_scenario>  (547) 
1 2 3 1 7 1 0 3 0 2 2

>  <source_rank_in_scored_call>  (547) 
0

>  <source_current_task>  (547) 
close_aliphatic_ring

>  <scenario>  (547) 
1 2 3 1 7 1 0 3 0 2

>  <protected_ring_attachments>  (547) 
3,1,0,2|1,0,2;4,5,0,2|5,0,2

>  <current_task>  (547) 
no_task

>  <rotatable_bond_torsions>  (547) 
1,0,2,9;0,2,9,10;0,5,6,8;2,9,10,11;9,10,11,12

$$$$

     RDKit          3D

 15 16  0  0  0  0  0  0  0  0999 V2000
  -28.4390   -6.4860  -30.7630 C   0  0  0  0  0  0  0  0  0  0  0  0
  -27.8580   -6.5650  -31.9950 N   0  0  0  0  0  0  0  0  0  0  0  0
  -28.7840   -7.7310  -30.0000 N   0  0  0  0  0  0  0  0  0  0  0  0
  -27.6220   -5.3190  -32.4390 C   0  0  0  0  0  0  0  0  0  0  0  0
  -28.0640   -4.4730  -31.4660 N   0  0  0  0  0  0  0  0  0  0  0  0
  -28.5530   -5.1760  -30.4620 N   0  0  0  0  0  0  0  0  0  0  0  0
  -29.0610   -4.6370  -29.2970 C   0  0  0  0  0  0  0  0  0  0  0  0
  -29.5630   -5.2810  -28.3900 O   0  0  0  0  0  0  0  0  0  0  0  0
  -28.8990   -3.1340  -28.9790 C   0  0  0  0  0  0  0  0  0  0  0  0
  -28.9020   -9.0490  -30.4720 C   0  0  2  0  0  0  0  0  0  0  0  0
  -28.0660  -10.0220  -29.6310 C   0  0  0  0  0  0  0  0  0  0  0  0
  -28.4740  -11.2830  -29.9990 O   0  0  0  0  0  0  0  0  0  0  0  0
  -29.2160  -11.2420  -31.1500 C   0  0  0  0  0  0  0  0  0  0  0  0
  -29.0320   -9.8460  -31.7390 C   0  0  0  0  0  0  0  0  0  0  0  0
  -27.6420   -2.8620  -28.1650 C   0  0  0  0  0  0  0  0  0  0  0  0
  1  2  2  0
  1  6  1  0
  1  3  1  0
  2  4  1  0
 10  3  1  6
  4  5  2  0
  5  6  1  0
  6  7  1  0
  7  9  1  0
  7  8  2  0
 10 14  1  0
 10 11  1  0
 11 12  1  0
 12 13  1  0
 13 14  1  0
  9 15  1  0
M  END
>  <name>  (548) 
Car Nac Nd0 Car Nac Nac Cs2 .=O Cs3 C3r C3r O_a C3r C3r Cs3

>  <indices>  (548) 
[0, 1, 2]

>  <tasks>  (548) 
probe_placing close_aromatic_ring close_aromatic_ring close_aromatic_ring ring_built build_to_Nac build_DB_to_Cs2 build_SB_to_Cs2 build_to_Nd0 close_aliphatic_ring close_aliphatic_ring close_aliphatic_ring close_aliphatic_ring

>  <prot_clashes>  (548) 
6

>  <NBS phar>  (548) 
0.24000000000000005

>  <NBS_non-phar>  (548) 
0.43536965052286786

>  <NBS>  (548) 
0.6753696505228679

>  <source_stage>  (548) 
scored

>  <source_iter>  (548) 
12

>  <source_parent_mol>  (548) 
0

>  <source_scenario>  (548) 
1 2 3 1 7 1 0 3 0 2 2 0

>  <source_rank_in_scored_call>  (548) 
2

>  <source_current_task>  (548) 
no_task

>  <scenario>  (548) 
1 2 3 1 7 1 0 3 0 2 2

>  <protected_ring_attachments>  (548) 
3,1,0,2|1,0,2;4,5,0,2|5,0,2;11,10,9,2|10,9,2;12,13,9,2|13,9,2

>  <current_task>  (548) 
no_task

>  <rotatable_bond_torsions>  (548) 
1,0,2,9;0,2,9,10;0,5,6,8

>  <reason_to_skip>  (548) 
global_duplicate

>  <global_duplicate_rmsd>  (548) 
0.0

>  <global_duplicate_old_source_iter>  (548) 
11

>  <global_duplicate_old_source_parent_mol>  (548) 
2

>  <global_duplicate_old_index>  (548) 
NA

>  <global_duplicate_rotatable_bond_torsions>  (548) 
1,0,2,9;0,2,9,10;0,5,6,8

>  <global_duplicate_old_rotatable_bond_torsions>  (548) 
1,0,2,9;0,2,9,10;0,5,6,8

>  <global_duplicate_last_growth_torsion>  (548) 
(10, 11, 12, 13)

>  <global_duplicate_protected_ring_attachments>  (548) 
3,1,0,2|1,0,2;4,5,0,2|5,0,2;11,10,9,2|10,9,2;12,13,9,2|13,9,2

>  <global_duplicate_old_last_growth_torsion>  (548) 
(10, 11, 12, 13)

>  <global_duplicate_old_protected_ring_attachments>  (548) 
3,1,0,2|1,0,2;4,5,0,2|5,0,2;11,10,9,2|10,9,2;12,13,9,2|13,9,2

$$$$

     RDKit          3D

 15 16  0  0  0  0  0  0  0  0999 V2000
  -28.2670   -6.2520  -30.7530 C   0  0  0  0  0  0  0  0  0  0  0  0
  -27.6710   -6.3750  -31.9750 N   0  0  0  0  0  0  0  0  0  0  0  0
  -28.7260   -7.4670  -30.0020 N   0  0  0  0  0  0  0  0  0  0  0  0
  -27.3260   -5.1520  -32.4090 C   0  0  0  0  0  0  0  0  0  0  0  0
  -27.7160   -4.2750  -31.4410 N   0  0  0  0  0  0  0  0  0  0  0  0
  -28.2790   -4.9380  -30.4490 N   0  0  0  0  0  0  0  0  0  0  0  0
  -28.7630   -4.3620  -29.2910 C   0  0  0  0  0  0  0  0  0  0  0  0
  -29.3330   -4.9650  -28.3960 O   0  0  0  0  0  0  0  0  0  0  0  0
  -28.4850   -2.8780  -28.9640 C   0  0  0  0  0  0  0  0  0  0  0  0
  -28.9410   -8.7700  -30.4810 C   0  0  2  0  0  0  0  0  0  0  0  0
  -28.2030   -9.8100  -29.6280 C   0  0  0  0  0  0  0  0  0  0  0  0
  -28.7060  -11.0320  -30.0090 O   0  0  0  0  0  0  0  0  0  0  0  0
  -29.4210  -10.9280  -31.1730 C   0  0  0  0  0  0  0  0  0  0  0  0
  -29.1120   -9.5500  -31.7540 C   0  0  0  0  0  0  0  0  0  0  0  0
  -29.2110   -1.9980  -29.9770 C   0  0  0  0  0  0  0  0  0  0  0  0
  1  2  2  0
  1  6  1  0
  1  3  1  0
  2  4  1  0
 10  3  1  6
  4  5  2  0
  5  6  1  0
  6  7  1  0
  7  9  1  0
  7  8  2  0
 10 14  1  0
 10 11  1  0
 11 12  1  0
 12 13  1  0
 13 14  1  0
  9 15  1  0
M  END
>  <name>  (549) 
Car Nac Nd0 Car Nac Nac Cs2 .=O Cs3 C3r C3r O_a C3r C3r Cs3

>  <indices>  (549) 
[0, 1, 2]

>  <tasks>  (549) 
probe_placing close_aromatic_ring close_aromatic_ring close_aromatic_ring ring_built build_to_Nac build_DB_to_Cs2 build_SB_to_Cs2 build_to_Nd0 close_aliphatic_ring close_aliphatic_ring close_aliphatic_ring close_aliphatic_ring

>  <prot_clashes>  (549) 
5

>  <NBS phar>  (549) 
0.24000000000000005

>  <NBS_non-phar>  (549) 
0.41492827733357746

>  <NBS>  (549) 
0.6549282773335775

>  <source_stage>  (549) 
scored

>  <source_iter>  (549) 
12

>  <source_parent_mol>  (549) 
0

>  <source_scenario>  (549) 
1 2 3 1 7 1 0 3 0 2 2 0

>  <source_rank_in_scored_call>  (549) 
5

>  <source_current_task>  (549) 
no_task

>  <scenario>  (549) 
1 2 3 1 7 1 0 3 0 2 2

>  <protected_ring_attachments>  (549) 
3,1,0,2|1,0,2;4,5,0,2|5,0,2;11,10,9,2|10,9,2;12,13,9,2|13,9,2

>  <current_task>  (549) 
no_task

>  <rotatable_bond_torsions>  (549) 
1,0,2,9;0,2,9,10;0,5,6,8

>  <reason_to_skip>  (549) 
global_duplicate

>  <global_duplicate_rmsd>  (549) 
0.0

>  <global_duplicate_old_source_iter>  (549) 
11

>  <global_duplicate_old_source_parent_mol>  (549) 
2

>  <global_duplicate_old_index>  (549) 
NA

>  <global_duplicate_rotatable_bond_torsions>  (549) 
1,0,2,9;0,2,9,10;0,5,6,8

>  <global_duplicate_old_rotatable_bond_torsions>  (549) 
1,0,2,9;0,2,9,10;0,5,6,8

>  <global_duplicate_last_growth_torsion>  (549) 
(10, 11, 12, 13)

>  <global_duplicate_protected_ring_attachments>  (549) 
3,1,0,2|1,0,2;4,5,0,2|5,0,2;11,10,9,2|10,9,2;12,13,9,2|13,9,2

>  <global_duplicate_old_last_growth_torsion>  (549) 
(10, 11, 12, 13)

>  <global_duplicate_old_protected_ring_attachments>  (549) 
3,1,0,2|1,0,2;4,5,0,2|5,0,2;11,10,9,2|10,9,2;12,13,9,2|13,9,2

$$$$

     RDKit          3D

 15 16  0  0  0  0  0  0  0  0999 V2000
  -28.3080   -6.0110  -30.6220 C   0  0  0  0  0  0  0  0  0  0  0  0
  -27.7340   -6.4010  -31.7980 N   0  0  0  0  0  0  0  0  0  0  0  0
  -28.7450   -7.0300  -29.6120 N   0  0  0  0  0  0  0  0  0  0  0  0
  -27.4050   -5.3040  -32.4990 C   0  0  0  0  0  0  0  0  0  0  0  0
  -27.7820   -4.2350  -31.7430 N   0  0  0  0  0  0  0  0  0  0  0  0
  -28.3220   -4.6630  -30.6170 N   0  0  0  0  0  0  0  0  0  0  0  0
  -28.7870   -3.8460  -29.6070 C   0  0  0  0  0  0  0  0  0  0  0  0
  -29.3370   -4.2360  -28.5890 O   0  0  0  0  0  0  0  0  0  0  0  0
  -28.5120   -2.3250  -29.6230 C   0  0  0  0  0  0  0  0  0  0  0  0
  -28.9620   -8.4070  -29.7850 C   0  0  2  0  0  0  0  0  0  0  0  0
  -28.2020   -9.2310  -28.7380 C   0  0  0  0  0  0  0  0  0  0  0  0
  -28.7040  -10.5080  -28.8290 O   0  0  0  0  0  0  0  0  0  0  0  0
  -29.4420  -10.6660  -29.9720 C   0  0  0  0  0  0  0  0  0  0  0  0
  -29.1530   -9.4510  -30.8500 C   0  0  0  0  0  0  0  0  0  0  0  0
  -29.7110   -1.4650  -29.8990 C   0  0  0  0  0  0  0  0  0  0  0  0
  1  2  2  0
  1  6  1  0
  1  3  1  0
  2  4  1  0
 10  3  1  6
  4  5  2  0
  5  6  1  0
  6  7  1  0
  7  9  1  0
  7  8  2  0
 10 14  1  0
 10 11  1  0
 11 12  1  0
 12 13  1  0
 13 14  1  0
  9 15  1  0
M  END
>  <name>  (550) 
Car Nac Nd0 Car Nac Nac Cs2 .=O Cs3 C3r C3r O_a C3r C3r Cs3

>  <indices>  (550) 
[0, 1, 2]

>  <tasks>  (550) 
probe_placing close_aromatic_ring close_aromatic_ring close_aromatic_ring ring_built build_to_Nac build_DB_to_Cs2 build_SB_to_Cs2 build_to_Nd0 close_aliphatic_ring close_aliphatic_ring close_aliphatic_ring close_aliphatic_ring

>  <prot_clashes>  (550) 
7

>  <NBS phar>  (550) 
0.22000000000000003

>  <NBS_non-phar>  (550) 
0.4341718355814616

>  <NBS>  (550) 
0.6541718355814616

>  <source_stage>  (550) 
scored

>  <source_iter>  (550) 
12

>  <source_parent_mol>  (550) 
0

>  <source_scenario>  (550) 
1 2 3 1 7 1 0 3 0 2 2 0

>  <source_rank_in_scored_call>  (550) 
6

>  <source_current_task>  (550) 
no_task

>  <scenario>  (550) 
1 2 3 1 7 1 0 3 0 2 2

>  <protected_ring_attachments>  (550) 
3,1,0,2|1,0,2;4,5,0,2|5,0,2;11,10,9,2|10,9,2;12,13,9,2|13,9,2

>  <current_task>  (550) 
no_task

>  <rotatable_bond_torsions>  (550) 
1,0,2,9;0,2,9,10;0,5,6,8

>  <reason_to_skip>  (550) 
global_duplicate

>  <global_duplicate_rmsd>  (550) 
0.0

>  <global_duplicate_old_source_iter>  (550) 
11

>  <global_duplicate_old_source_parent_mol>  (550) 
2

>  <global_duplicate_old_index>  (550) 
NA

>  <global_duplicate_rotatable_bond_torsions>  (550) 
1,0,2,9;0,2,9,10;0,5,6,8

>  <global_duplicate_old_rotatable_bond_torsions>  (550) 
1,0,2,9;0,2,9,10;0,5,6,8

>  <global_duplicate_last_growth_torsion>  (550) 
(10, 11, 12, 13)

>  <global_duplicate_protected_ring_attachments>  (550) 
3,1,0,2|1,0,2;4,5,0,2|5,0,2;11,10,9,2|10,9,2;12,13,9,2|13,9,2

>  <global_duplicate_old_last_growth_torsion>  (550) 
(10, 11, 12, 13)

>  <global_duplicate_old_protected_ring_attachments>  (550) 
3,1,0,2|1,0,2;4,5,0,2|5,0,2;11,10,9,2|10,9,2;12,13,9,2|13,9,2

$$$$

     RDKit          3D

 15 16  0  0  0  0  0  0  0  0999 V2000
  -28.2330   -6.1450  -30.7860 C   0  0  0  0  0  0  0  0  0  0  0  0
  -27.6340   -6.2660  -32.0060 N   0  0  0  0  0  0  0  0  0  0  0  0
  -28.6690   -7.3630  -30.0250 N   0  0  0  0  0  0  0  0  0  0  0  0
  -27.3130   -5.0400  -32.4500 C   0  0  0  0  0  0  0  0  0  0  0  0
  -27.7220   -4.1630  -31.4910 N   0  0  0  0  0  0  0  0  0  0  0  0
  -28.2720   -4.8290  -30.4930 N   0  0  0  0  0  0  0  0  0  0  0  0
  -28.7690   -4.2530  -29.3410 C   0  0  0  0  0  0  0  0  0  0  0  0
  -29.3280   -4.8600  -28.4410 O   0  0  0  0  0  0  0  0  0  0  0  0
  -28.5210   -2.7610  -29.0270 C   0  0  0  0  0  0  0  0  0  0  0  0
  -28.8580   -8.6740  -30.4930 C   0  0  2  0  0  0  0  0  0  0  0  0
  -28.1000   -9.6910  -29.6310 C   0  0  0  0  0  0  0  0  0  0  0  0
  -28.5770  -10.9270  -30.0010 O   0  0  0  0  0  0  0  0  0  0  0  0
  -29.2930  -10.8460  -31.1670 C   0  0  0  0  0  0  0  0  0  0  0  0
  -29.0120   -9.4680  -31.7590 C   0  0  0  0  0  0  0  0  0  0  0  0
  -29.2770   -1.8140  -30.0090 C   0  0  0  0  0  0  0  0  0  0  0  0
  1  2  2  0
  1  6  1  0
  1  3  1  0
  2  4  1  0
 10  3  1  6
  4  5  2  0
  5  6  1  0
  6  7  1  0
  7  9  1  0
  7  8  2  0
 10 14  1  0
 10 11  1  0
 11 12  1  0
 12 13  1  0
 13 14  1  0
  9 15  1  0
M  END
>  <name>  (551) 
Car Nac Nd0 Car Nac Nac Cs2 .=O Cs3 C3r C3r O_a C3r C3r Cs3

>  <indices>  (551) 
[0, 1, 2]

>  <tasks>  (551) 
probe_placing close_aromatic_ring close_aromatic_ring close_aromatic_ring ring_built build_to_Nac build_DB_to_Cs2 build_SB_to_Cs2 build_to_Nd0 close_aliphatic_ring close_aliphatic_ring close_aliphatic_ring close_aliphatic_ring

>  <prot_clashes>  (551) 
4

>  <NBS phar>  (551) 
0.22000000000000003

>  <NBS_non-phar>  (551) 
0.40675455729166665

>  <NBS>  (551) 
0.6267545572916666

>  <source_stage>  (551) 
scored

>  <source_iter>  (551) 
12

>  <source_parent_mol>  (551) 
0

>  <source_scenario>  (551) 
1 2 3 1 7 1 0 3 0 2 2 0

>  <source_rank_in_scored_call>  (551) 
11

>  <source_current_task>  (551) 
no_task

>  <scenario>  (551) 
1 2 3 1 7 1 0 3 0 2 2

>  <protected_ring_attachments>  (551) 
3,1,0,2|1,0,2;4,5,0,2|5,0,2;11,10,9,2|10,9,2;12,13,9,2|13,9,2

>  <current_task>  (551) 
no_task

>  <rotatable_bond_torsions>  (551) 
1,0,2,9;0,2,9,10;0,5,6,8

>  <reason_to_skip>  (551) 
global_duplicate

>  <global_duplicate_rmsd>  (551) 
0.0

>  <global_duplicate_old_source_iter>  (551) 
11

>  <global_duplicate_old_source_parent_mol>  (551) 
2

>  <global_duplicate_old_index>  (551) 
NA

>  <global_duplicate_rotatable_bond_torsions>  (551) 
1,0,2,9;0,2,9,10;0,5,6,8

>  <global_duplicate_old_rotatable_bond_torsions>  (551) 
1,0,2,9;0,2,9,10;0,5,6,8

>  <global_duplicate_last_growth_torsion>  (551) 
(10, 11, 12, 13)

>  <global_duplicate_protected_ring_attachments>  (551) 
3,1,0,2|1,0,2;4,5,0,2|5,0,2;11,10,9,2|10,9,2;12,13,9,2|13,9,2

>  <global_duplicate_old_last_growth_torsion>  (551) 
(10, 11, 12, 13)

>  <global_duplicate_old_protected_ring_attachments>  (551) 
3,1,0,2|1,0,2;4,5,0,2|5,0,2;11,10,9,2|10,9,2;12,13,9,2|13,9,2

$$$$

     RDKit          3D

 15 16  0  0  0  0  0  0  0  0999 V2000
  -28.4370   -6.5530  -30.7660 C   0  0  0  0  0  0  0  0  0  0  0  0
  -27.8560   -6.6240  -31.9990 N   0  0  0  0  0  0  0  0  0  0  0  0
  -28.7820   -7.8020  -30.0110 N   0  0  0  0  0  0  0  0  0  0  0  0
  -27.6200   -5.3760  -32.4350 C   0  0  0  0  0  0  0  0  0  0  0  0
  -28.0630   -4.5360  -31.4580 N   0  0  0  0  0  0  0  0  0  0  0  0
  -28.5520   -5.2450  -30.4580 N   0  0  0  0  0  0  0  0  0  0  0  0
  -29.0600   -4.7120  -29.2900 C   0  0  0  0  0  0  0  0  0  0  0  0
  -29.5630   -5.3610  -28.3870 O   0  0  0  0  0  0  0  0  0  0  0  0
  -28.8990   -3.2110  -28.9640 C   0  0  0  0  0  0  0  0  0  0  0  0
  -28.8990   -9.1180  -30.4900 C   0  0  2  0  0  0  0  0  0  0  0  0
  -28.0630  -10.0950  -29.6540 C   0  0  0  0  0  0  0  0  0  0  0  0
  -28.4700  -11.3540  -30.0290 O   0  0  0  0  0  0  0  0  0  0  0  0
  -29.2130  -11.3070  -31.1800 C   0  0  0  0  0  0  0  0  0  0  0  0
  -29.0290   -9.9070  -31.7620 C   0  0  0  0  0  0  0  0  0  0  0  0
  -27.5280   -2.7930  -28.5160 C   0  0  0  0  0  0  0  0  0  0  0  0
  1  2  2  0
  1  6  1  0
  1  3  1  0
  2  4  1  0
 10  3  1  6
  4  5  2  0
  5  6  1  0
  6  7  1  0
  7  9  1  0
  7  8  2  0
 10 14  1  0
 10 11  1  0
 11 12  1  0
 12 13  1  0
 13 14  1  0
  9 15  1  0
M  END
>  <name>  (552) 
Car Nac Nd0 Car Nac Nac Cs2 .=O Cs3 C3r C3r O_a C3r C3r Cs3

>  <indices>  (552) 
[0, 1, 2]

>  <tasks>  (552) 
probe_placing close_aromatic_ring close_aromatic_ring close_aromatic_ring ring_built build_to_Nac build_DB_to_Cs2 build_SB_to_Cs2 build_to_Nd0 close_aliphatic_ring close_aliphatic_ring close_aliphatic_ring close_aliphatic_ring

>  <prot_clashes>  (552) 
5

>  <NBS phar>  (552) 
0.24000000000000005

>  <NBS_non-phar>  (552) 
0.38388710021972655

>  <NBS>  (552) 
0.6238871002197266

>  <source_stage>  (552) 
scored

>  <source_iter>  (552) 
12

>  <source_parent_mol>  (552) 
0

>  <source_scenario>  (552) 
1 2 3 1 7 1 0 3 0 2 2 0

>  <source_rank_in_scored_call>  (552) 
14

>  <source_current_task>  (552) 
no_task

>  <scenario>  (552) 
1 2 3 1 7 1 0 3 0 2 2

>  <protected_ring_attachments>  (552) 
3,1,0,2|1,0,2;4,5,0,2|5,0,2;11,10,9,2|10,9,2;12,13,9,2|13,9,2

>  <current_task>  (552) 
no_task

>  <rotatable_bond_torsions>  (552) 
1,0,2,9;0,2,9,10;0,5,6,8

>  <reason_to_skip>  (552) 
global_duplicate

>  <global_duplicate_rmsd>  (552) 
0.0

>  <global_duplicate_old_source_iter>  (552) 
11

>  <global_duplicate_old_source_parent_mol>  (552) 
2

>  <global_duplicate_old_index>  (552) 
NA

>  <global_duplicate_rotatable_bond_torsions>  (552) 
1,0,2,9;0,2,9,10;0,5,6,8

>  <global_duplicate_old_rotatable_bond_torsions>  (552) 
1,0,2,9;0,2,9,10;0,5,6,8

>  <global_duplicate_last_growth_torsion>  (552) 
(10, 11, 12, 13)

>  <global_duplicate_protected_ring_attachments>  (552) 
3,1,0,2|1,0,2;4,5,0,2|5,0,2;11,10,9,2|10,9,2;12,13,9,2|13,9,2

>  <global_duplicate_old_last_growth_torsion>  (552) 
(10, 11, 12, 13)

>  <global_duplicate_old_protected_ring_attachments>  (552) 
3,1,0,2|1,0,2;4,5,0,2|5,0,2;11,10,9,2|10,9,2;12,13,9,2|13,9,2

$$$$

     RDKit          3D

 15 16  0  0  0  0  0  0  0  0999 V2000
  -28.4330   -6.5570  -30.7640 C   0  0  0  0  0  0  0  0  0  0  0  0
  -27.8860   -6.6640  -32.0100 N   0  0  0  0  0  0  0  0  0  0  0  0
  -28.7690   -7.7850  -29.9700 N   0  0  0  0  0  0  0  0  0  0  0  0
  -27.6500   -5.4290  -32.4820 C   0  0  0  0  0  0  0  0  0  0  0  0
  -28.0580   -4.5610  -31.5140 N   0  0  0  0  0  0  0  0  0  0  0  0
  -28.5260   -5.2410  -30.4840 N   0  0  0  0  0  0  0  0  0  0  0  0
  -28.9970   -4.6760  -29.3160 C   0  0  0  0  0  0  0  0  0  0  0  0
  -29.4810   -5.2980  -28.3840 O   0  0  0  0  0  0  0  0  0  0  0  0
  -28.8120   -3.1690  -29.0300 C   0  0  0  0  0  0  0  0  0  0  0  0
  -28.9120   -9.1100  -30.4140 C   0  0  2  0  0  0  0  0  0  0  0  0
  -28.0630  -10.0760  -29.5780 C   0  0  0  0  0  0  0  0  0  0  0  0
  -28.4930  -11.3390  -29.9120 O   0  0  0  0  0  0  0  0  0  0  0  0
  -29.2660  -11.3110  -31.0430 C   0  0  0  0  0  0  0  0  0  0  0  0
  -29.0840   -9.9280  -31.6630 C   0  0  0  0  0  0  0  0  0  0  0  0
  -29.0830   -2.2490  -30.2220 C   0  0  0  0  0  0  0  0  0  0  0  0
  1  2  2  0
  1  6  1  0
  1  3  1  0
  2  4  1  0
 10  3  1  6
  4  5  2  0
  5  6  1  0
  6  7  1  0
  7  9  1  0
  7  8  2  0
 10 14  1  0
 10 11  1  0
 11 12  1  0
 12 13  1  0
 13 14  1  0
  9 15  1  0
M  END
>  <name>  (553) 
Car Nac Nd0 Car Nac Nac Cs2 .=O Cs3 C3r C3r O_a C3r C3r Cs3

>  <indices>  (553) 
[0, 1, 2]

>  <tasks>  (553) 
probe_placing close_aromatic_ring close_aromatic_ring close_aromatic_ring ring_built build_to_Nac build_DB_to_Cs2 build_SB_to_Cs2 build_to_Nd0 close_aliphatic_ring close_aliphatic_ring close_aliphatic_ring close_aliphatic_ring

>  <prot_clashes>  (553) 
7

>  <NBS phar>  (553) 
0.24000000000000005

>  <NBS_non-phar>  (553) 
0.3801219622294108

>  <NBS>  (553) 
0.6201219622294109

>  <source_stage>  (553) 
scored

>  <source_iter>  (553) 
12

>  <source_parent_mol>  (553) 
0

>  <source_scenario>  (553) 
1 2 3 1 7 1 0 3 0 2 2 0

>  <source_rank_in_scored_call>  (553) 
16

>  <source_current_task>  (553) 
no_task

>  <scenario>  (553) 
1 2 3 1 7 1 0 3 0 2 2

>  <protected_ring_attachments>  (553) 
3,1,0,2|1,0,2;4,5,0,2|5,0,2;11,10,9,2|10,9,2;12,13,9,2|13,9,2

>  <current_task>  (553) 
no_task

>  <rotatable_bond_torsions>  (553) 
1,0,2,9;0,2,9,10;0,5,6,8

>  <reason_to_skip>  (553) 
global_duplicate

>  <global_duplicate_rmsd>  (553) 
0.0

>  <global_duplicate_old_source_iter>  (553) 
11

>  <global_duplicate_old_source_parent_mol>  (553) 
2

>  <global_duplicate_old_index>  (553) 
NA

>  <global_duplicate_rotatable_bond_torsions>  (553) 
1,0,2,9;0,2,9,10;0,5,6,8

>  <global_duplicate_old_rotatable_bond_torsions>  (553) 
1,0,2,9;0,2,9,10;0,5,6,8

>  <global_duplicate_last_growth_torsion>  (553) 
(10, 11, 12, 13)

>  <global_duplicate_protected_ring_attachments>  (553) 
3,1,0,2|1,0,2;4,5,0,2|5,0,2;11,10,9,2|10,9,2;12,13,9,2|13,9,2

>  <global_duplicate_old_last_growth_torsion>  (553) 
(10, 11, 12, 13)

>  <global_duplicate_old_protected_ring_attachments>  (553) 
3,1,0,2|1,0,2;4,5,0,2|5,0,2;11,10,9,2|10,9,2;12,13,9,2|13,9,2

$$$$

     RDKit          3D

 15 16  0  0  0  0  0  0  0  0999 V2000
  -28.3040   -6.4010  -30.7750 C   0  0  0  0  0  0  0  0  0  0  0  0
  -27.7420   -6.5170  -32.0140 N   0  0  0  0  0  0  0  0  0  0  0  0
  -28.7350   -7.6210  -30.0150 N   0  0  0  0  0  0  0  0  0  0  0  0
  -27.4170   -5.2900  -32.4530 C   0  0  0  0  0  0  0  0  0  0  0  0
  -27.7840   -4.4180  -31.4710 N   0  0  0  0  0  0  0  0  0  0  0  0
  -28.3140   -5.0890  -30.4650 N   0  0  0  0  0  0  0  0  0  0  0  0
  -28.7680   -4.5200  -29.2920 C   0  0  0  0  0  0  0  0  0  0  0  0
  -29.3090   -5.1290  -28.3830 O   0  0  0  0  0  0  0  0  0  0  0  0
  -28.4880   -3.0350  -28.9680 C   0  0  0  0  0  0  0  0  0  0  0  0
  -28.9570   -8.9240  -30.4930 C   0  0  2  0  0  0  0  0  0  0  0  0
  -28.1890   -9.9630  -29.6660 C   0  0  0  0  0  0  0  0  0  0  0  0
  -28.6960  -11.1860  -30.0360 O   0  0  0  0  0  0  0  0  0  0  0  0
  -29.4450  -11.0820  -31.1790 C   0  0  0  0  0  0  0  0  0  0  0  0
  -29.1600   -9.7000  -31.7630 C   0  0  0  0  0  0  0  0  0  0  0  0
  -29.1930   -2.1310  -29.9980 C   0  0  0  0  0  0  0  0  0  0  0  0
  1  2  2  0
  1  6  1  0
  1  3  1  0
  2  4  1  0
 10  3  1  6
  4  5  2  0
  5  6  1  0
  6  7  1  0
  7  9  1  0
  7  8  2  0
 10 14  1  0
 10 11  1  0
 11 12  1  0
 12 13  1  0
 13 14  1  0
  9 15  1  0
M  END
>  <name>  (554) 
Car Nac Nd0 Car Nac Nac Cs2 .=O Cs3 C3r C3r O_a C3r C3r Cs3

>  <indices>  (554) 
[0, 1, 2]

>  <tasks>  (554) 
probe_placing close_aromatic_ring close_aromatic_ring close_aromatic_ring ring_built build_to_Nac build_DB_to_Cs2 build_SB_to_Cs2 build_to_Nd0 close_aliphatic_ring close_aliphatic_ring close_aliphatic_ring close_aliphatic_ring

>  <prot_clashes>  (554) 
6

>  <NBS phar>  (554) 
0.22000000000000003

>  <NBS_non-phar>  (554) 
0.3964374542236328

>  <NBS>  (554) 
0.6164374542236328

>  <source_stage>  (554) 
scored

>  <source_iter>  (554) 
12

>  <source_parent_mol>  (554) 
0

>  <source_scenario>  (554) 
1 2 3 1 7 1 0 3 0 2 2 0

>  <source_rank_in_scored_call>  (554) 
18

>  <source_current_task>  (554) 
no_task

>  <scenario>  (554) 
1 2 3 1 7 1 0 3 0 2 2

>  <protected_ring_attachments>  (554) 
3,1,0,2|1,0,2;4,5,0,2|5,0,2;11,10,9,2|10,9,2;12,13,9,2|13,9,2

>  <current_task>  (554) 
no_task

>  <rotatable_bond_torsions>  (554) 
1,0,2,9;0,2,9,10;0,5,6,8

>  <reason_to_skip>  (554) 
global_duplicate

>  <global_duplicate_rmsd>  (554) 
0.0

>  <global_duplicate_old_source_iter>  (554) 
11

>  <global_duplicate_old_source_parent_mol>  (554) 
2

>  <global_duplicate_old_index>  (554) 
NA

>  <global_duplicate_rotatable_bond_torsions>  (554) 
1,0,2,9;0,2,9,10;0,5,6,8

>  <global_duplicate_old_rotatable_bond_torsions>  (554) 
1,0,2,9;0,2,9,10;0,5,6,8

>  <global_duplicate_last_growth_torsion>  (554) 
(10, 11, 12, 13)

>  <global_duplicate_protected_ring_attachments>  (554) 
3,1,0,2|1,0,2;4,5,0,2|5,0,2;11,10,9,2|10,9,2;12,13,9,2|13,9,2

>  <global_duplicate_old_last_growth_torsion>  (554) 
(10, 11, 12, 13)

>  <global_duplicate_old_protected_ring_attachments>  (554) 
3,1,0,2|1,0,2;4,5,0,2|5,0,2;11,10,9,2|10,9,2;12,13,9,2|13,9,2

$$$$

     RDKit          3D

 15 16  0  0  0  0  0  0  0  0999 V2000
  -28.3010   -6.4720  -30.7460 C   0  0  0  0  0  0  0  0  0  0  0  0
  -27.9530   -6.7420  -32.0380 N   0  0  0  0  0  0  0  0  0  0  0  0
  -28.6190   -7.5850  -29.7920 N   0  0  0  0  0  0  0  0  0  0  0  0
  -27.6860   -5.5830  -32.6620 C   0  0  0  0  0  0  0  0  0  0  0  0
  -27.8720   -4.5970  -31.7400 N   0  0  0  0  0  0  0  0  0  0  0  0
  -28.2400   -5.1330  -30.5920 N   0  0  0  0  0  0  0  0  0  0  0  0
  -28.4850   -4.4230  -29.4330 C   0  0  0  0  0  0  0  0  0  0  0  0
  -28.8770   -4.9090  -28.3850 O   0  0  0  0  0  0  0  0  0  0  0  0
  -28.1330   -2.9220  -29.3310 C   0  0  0  0  0  0  0  0  0  0  0  0
  -28.9370   -8.9240  -30.0750 C   0  0  2  0  0  0  0  0  0  0  0  0
  -28.0600   -9.8910  -29.2700 C   0  0  0  0  0  0  0  0  0  0  0  0
  -28.6390  -11.1300  -29.4110 O   0  0  0  0  0  0  0  0  0  0  0  0
  -29.5650  -11.1260  -30.4210 C   0  0  0  0  0  0  0  0  0  0  0  0
  -29.3590   -9.8290  -31.1980 C   0  0  0  0  0  0  0  0  0  0  0  0
  -29.2000   -2.1530  -28.6210 C   0  0  0  0  0  0  0  0  0  0  0  0
  1  2  2  0
  1  6  1  0
  1  3  1  0
  2  4  1  0
 10  3  1  6
  4  5  2  0
  5  6  1  0
  6  7  1  0
  7  9  1  0
  7  8  2  0
 10 14  1  0
 10 11  1  0
 11 12  1  0
 12 13  1  0
 13 14  1  0
  9 15  1  0
M  END
>  <name>  (555) 
Car Nac Nd0 Car Nac Nac Cs2 .=O Cs3 C3r C3r O_a C3r C3r Cs3

>  <indices>  (555) 
[0, 1, 2]

>  <tasks>  (555) 
probe_placing close_aromatic_ring close_aromatic_ring close_aromatic_ring ring_built build_to_Nac build_DB_to_Cs2 build_SB_to_Cs2 build_to_Nd0 close_aliphatic_ring close_aliphatic_ring close_aliphatic_ring close_aliphatic_ring

>  <prot_clashes>  (555) 
11

>  <NBS phar>  (555) 
0.22000000000000003

>  <NBS_non-phar>  (555) 
0.38635098139444984

>  <NBS>  (555) 
0.6063509813944499

>  <source_stage>  (555) 
scored

>  <source_iter>  (555) 
12

>  <source_parent_mol>  (555) 
0

>  <source_scenario>  (555) 
1 2 3 1 7 1 0 3 0 2 2 0

>  <source_rank_in_scored_call>  (555) 
26

>  <source_current_task>  (555) 
no_task

>  <scenario>  (555) 
1 2 3 1 7 1 0 3 0 2 2

>  <protected_ring_attachments>  (555) 
3,1,0,2|1,0,2;4,5,0,2|5,0,2;11,10,9,2|10,9,2;12,13,9,2|13,9,2

>  <current_task>  (555) 
no_task

>  <rotatable_bond_torsions>  (555) 
1,0,2,9;0,2,9,10;0,5,6,8

>  <reason_to_skip>  (555) 
global_duplicate

>  <global_duplicate_rmsd>  (555) 
0.0

>  <global_duplicate_old_source_iter>  (555) 
11

>  <global_duplicate_old_source_parent_mol>  (555) 
2

>  <global_duplicate_old_index>  (555) 
NA

>  <global_duplicate_rotatable_bond_torsions>  (555) 
1,0,2,9;0,2,9,10;0,5,6,8

>  <global_duplicate_old_rotatable_bond_torsions>  (555) 
1,0,2,9;0,2,9,10;0,5,6,8

>  <global_duplicate_last_growth_torsion>  (555) 
(10, 11, 12, 13)

>  <global_duplicate_protected_ring_attachments>  (555) 
3,1,0,2|1,0,2;4,5,0,2|5,0,2;11,10,9,2|10,9,2;12,13,9,2|13,9,2

>  <global_duplicate_old_last_growth_torsion>  (555) 
(10, 11, 12, 13)

>  <global_duplicate_old_protected_ring_attachments>  (555) 
3,1,0,2|1,0,2;4,5,0,2|5,0,2;11,10,9,2|10,9,2;12,13,9,2|13,9,2

$$$$

     RDKit          3D

 15 16  0  0  0  0  0  0  0  0999 V2000
  -28.3470   -6.5290  -30.7290 C   0  0  0  0  0  0  0  0  0  0  0  0
  -27.9400   -6.6920  -32.0210 N   0  0  0  0  0  0  0  0  0  0  0  0
  -28.6740   -7.7190  -29.8750 N   0  0  0  0  0  0  0  0  0  0  0  0
  -27.6790   -5.4830  -32.5440 C   0  0  0  0  0  0  0  0  0  0  0  0
  -27.9300   -4.5740  -31.5600 N   0  0  0  0  0  0  0  0  0  0  0  0
  -28.3300   -5.2050  -30.4720 N   0  0  0  0  0  0  0  0  0  0  0  0
  -28.6410   -4.5910  -29.2750 C   0  0  0  0  0  0  0  0  0  0  0  0
  -29.0630   -5.1650  -28.2840 O   0  0  0  0  0  0  0  0  0  0  0  0
  -28.3350   -3.0950  -29.0460 C   0  0  0  0  0  0  0  0  0  0  0  0
  -28.9430   -9.0400  -30.2710 C   0  0  2  0  0  0  0  0  0  0  0  0
  -28.0730  -10.0440  -29.5040 C   0  0  0  0  0  0  0  0  0  0  0  0
  -28.6120  -11.2820  -29.7620 O   0  0  0  0  0  0  0  0  0  0  0  0
  -29.4950  -11.2250  -30.8080 C   0  0  0  0  0  0  0  0  0  0  0  0
  -29.2940   -9.8670  -31.4760 C   0  0  0  0  0  0  0  0  0  0  0  0
  -29.1900   -2.4020  -28.0090 C   0  0  0  0  0  0  0  0  0  0  0  0
  1  2  2  0
  1  6  1  0
  1  3  1  0
  2  4  1  0
 10  3  1  6
  4  5  2  0
  5  6  1  0
  6  7  1  0
  7  9  1  0
  7  8  2  0
 10 14  1  0
 10 11  1  0
 11 12  1  0
 12 13  1  0
 13 14  1  0
  9 15  1  0
M  END
>  <name>  (556) 
Car Nac Nd0 Car Nac Nac Cs2 .=O Cs3 C3r C3r O_a C3r C3r Cs3

>  <indices>  (556) 
[0, 1, 2]

>  <tasks>  (556) 
probe_placing close_aromatic_ring close_aromatic_ring close_aromatic_ring ring_built build_to_Nac build_DB_to_Cs2 build_SB_to_Cs2 build_to_Nd0 close_aliphatic_ring close_aliphatic_ring close_aliphatic_ring close_aliphatic_ring

>  <prot_clashes>  (556) 
9

>  <NBS phar>  (556) 
0.22000000000000003

>  <NBS_non-phar>  (556) 
0.3525669733683268

>  <NBS>  (556) 
0.5725669733683268

>  <source_stage>  (556) 
scored

>  <source_iter>  (556) 
12

>  <source_parent_mol>  (556) 
0

>  <source_scenario>  (556) 
1 2 3 1 7 1 0 3 0 2 2 0

>  <source_rank_in_scored_call>  (556) 
44

>  <source_current_task>  (556) 
no_task

>  <scenario>  (556) 
1 2 3 1 7 1 0 3 0 2 2

>  <protected_ring_attachments>  (556) 
3,1,0,2|1,0,2;4,5,0,2|5,0,2;11,10,9,2|10,9,2;12,13,9,2|13,9,2

>  <current_task>  (556) 
no_task

>  <rotatable_bond_torsions>  (556) 
1,0,2,9;0,2,9,10;0,5,6,8

>  <reason_to_skip>  (556) 
global_duplicate

>  <global_duplicate_rmsd>  (556) 
0.0

>  <global_duplicate_old_source_iter>  (556) 
11

>  <global_duplicate_old_source_parent_mol>  (556) 
2

>  <global_duplicate_old_index>  (556) 
NA

>  <global_duplicate_rotatable_bond_torsions>  (556) 
1,0,2,9;0,2,9,10;0,5,6,8

>  <global_duplicate_old_rotatable_bond_torsions>  (556) 
1,0,2,9;0,2,9,10;0,5,6,8

>  <global_duplicate_last_growth_torsion>  (556) 
(10, 11, 12, 13)

>  <global_duplicate_protected_ring_attachments>  (556) 
3,1,0,2|1,0,2;4,5,0,2|5,0,2;11,10,9,2|10,9,2;12,13,9,2|13,9,2

>  <global_duplicate_old_last_growth_torsion>  (556) 
(10, 11, 12, 13)

>  <global_duplicate_old_protected_ring_attachments>  (556) 
3,1,0,2|1,0,2;4,5,0,2|5,0,2;11,10,9,2|10,9,2;12,13,9,2|13,9,2

$$$$

     RDKit          3D

 15 16  0  0  0  0  0  0  0  0999 V2000
  -28.4620   -6.4740  -30.6990 C   0  0  0  0  0  0  0  0  0  0  0  0
  -27.9330   -6.6880  -31.9380 N   0  0  0  0  0  0  0  0  0  0  0  0
  -28.8080   -7.6290  -29.8060 N   0  0  0  0  0  0  0  0  0  0  0  0
  -27.6830   -5.4990  -32.5090 C   0  0  0  0  0  0  0  0  0  0  0  0
  -28.0640   -4.5500  -31.6080 N   0  0  0  0  0  0  0  0  0  0  0  0
  -28.5300   -5.1380  -30.5220 N   0  0  0  0  0  0  0  0  0  0  0  0
  -28.9760   -4.4750  -29.3970 C   0  0  0  0  0  0  0  0  0  0  0  0
  -29.4580   -5.0130  -28.4140 O   0  0  0  0  0  0  0  0  0  0  0  0
  -28.7620   -2.9540  -29.2330 C   0  0  0  0  0  0  0  0  0  0  0  0
  -28.9790   -8.9830  -30.1420 C   0  0  2  0  0  0  0  0  0  0  0  0
  -28.1350   -9.8940  -29.2430 C   0  0  0  0  0  0  0  0  0  0  0  0
  -28.5910  -11.1720  -29.4710 O   0  0  0  0  0  0  0  0  0  0  0  0
  -29.3780  -11.2200  -30.5910 C   0  0  0  0  0  0  0  0  0  0  0  0
  -29.1810   -9.8930  -31.3210 C   0  0  0  0  0  0  0  0  0  0  0  0
  -28.8090   -2.5940  -27.8150 C   0  0  0  0  0  0  0  0  0  0  0  0
  1  2  2  0
  1  6  1  0
  1  3  1  0
  2  4  1  0
 10  3  1  6
  4  5  2  0
  5  6  1  0
  6  7  1  0
  7  9  1  0
  7  8  2  0
 10 14  1  0
 10 11  1  0
 11 12  1  0
 12 13  1  0
 13 14  1  0
  9 15  1  0
M  END
>  <name>  (557) 
Car Nac Nd0 Car Nac Nac Cs2 .=O Cs3 C3r C3r O_a C3r C3r Cs3

>  <indices>  (557) 
[0, 1, 2]

>  <tasks>  (557) 
probe_placing close_aromatic_ring close_aromatic_ring close_aromatic_ring ring_built build_to_Nac build_DB_to_Cs2 build_SB_to_Cs2 build_to_Nd0 close_aliphatic_ring close_aliphatic_ring close_aliphatic_ring close_aliphatic_ring

>  <prot_clashes>  (557) 
7

>  <NBS phar>  (557) 
0.12

>  <NBS_non-phar>  (557) 
0.4030200958251953

>  <NBS>  (557) 
0.5230200958251954

>  <source_stage>  (557) 
scored

>  <source_iter>  (557) 
12

>  <source_parent_mol>  (557) 
0

>  <source_scenario>  (557) 
1 2 3 1 7 1 0 3 0 2 2 0

>  <source_rank_in_scored_call>  (557) 
67

>  <source_current_task>  (557) 
no_task

>  <scenario>  (557) 
1 2 3 1 7 1 0 3 0 2 2

>  <protected_ring_attachments>  (557) 
3,1,0,2|1,0,2;4,5,0,2|5,0,2;11,10,9,2|10,9,2;12,13,9,2|13,9,2

>  <current_task>  (557) 
no_task

>  <rotatable_bond_torsions>  (557) 
1,0,2,9;0,2,9,10;0,5,6,8

>  <reason_to_skip>  (557) 
global_duplicate

>  <global_duplicate_rmsd>  (557) 
0.0

>  <global_duplicate_old_source_iter>  (557) 
11

>  <global_duplicate_old_source_parent_mol>  (557) 
2

>  <global_duplicate_old_index>  (557) 
NA

>  <global_duplicate_rotatable_bond_torsions>  (557) 
1,0,2,9;0,2,9,10;0,5,6,8

>  <global_duplicate_old_rotatable_bond_torsions>  (557) 
1,0,2,9;0,2,9,10;0,5,6,8

>  <global_duplicate_last_growth_torsion>  (557) 
(10, 11, 12, 13)

>  <global_duplicate_protected_ring_attachments>  (557) 
3,1,0,2|1,0,2;4,5,0,2|5,0,2;11,10,9,2|10,9,2;12,13,9,2|13,9,2

>  <global_duplicate_old_last_growth_torsion>  (557) 
(10, 11, 12, 13)

>  <global_duplicate_old_protected_ring_attachments>  (557) 
3,1,0,2|1,0,2;4,5,0,2|5,0,2;11,10,9,2|10,9,2;12,13,9,2|13,9,2

$$$$

     RDKit          3D

 15 16  0  0  0  0  0  0  0  0999 V2000
  -28.4600   -6.4870  -30.7140 C   0  0  0  0  0  0  0  0  0  0  0  0
  -27.9390   -6.6820  -31.9610 N   0  0  0  0  0  0  0  0  0  0  0  0
  -28.8020   -7.6570  -29.8390 N   0  0  0  0  0  0  0  0  0  0  0  0
  -27.6900   -5.4840  -32.5130 C   0  0  0  0  0  0  0  0  0  0  0  0
  -28.0630   -4.5490  -31.5940 N   0  0  0  0  0  0  0  0  0  0  0  0
  -28.5230   -5.1550  -30.5150 N   0  0  0  0  0  0  0  0  0  0  0  0
  -28.9610   -4.5100  -29.3770 C   0  0  0  0  0  0  0  0  0  0  0  0
  -29.4380   -5.0630  -28.3990 O   0  0  0  0  0  0  0  0  0  0  0  0
  -28.7440   -2.9920  -29.1890 C   0  0  0  0  0  0  0  0  0  0  0  0
  -28.9780   -9.0040  -30.1970 C   0  0  2  0  0  0  0  0  0  0  0  0
  -28.1300   -9.9320  -29.3180 C   0  0  0  0  0  0  0  0  0  0  0  0
  -28.5890  -11.2050  -29.5640 O   0  0  0  0  0  0  0  0  0  0  0  0
  -29.3830  -11.2330  -30.6810 C   0  0  0  0  0  0  0  0  0  0  0  0
  -29.1880   -9.8950  -31.3890 C   0  0  0  0  0  0  0  0  0  0  0  0
  -29.1710   -2.4780  -27.8510 C   0  0  0  0  0  0  0  0  0  0  0  0
  1  2  2  0
  1  6  1  0
  1  3  1  0
  2  4  1  0
 10  3  1  6
  4  5  2  0
  5  6  1  0
  6  7  1  0
  7  9  1  0
  7  8  2  0
 10 14  1  0
 10 11  1  0
 11 12  1  0
 12 13  1  0
 13 14  1  0
  9 15  1  0
M  END
>  <name>  (558) 
Car Nac Nd0 Car Nac Nac Cs2 .=O Cs3 C3r C3r O_a C3r C3r Cs3

>  <indices>  (558) 
[0, 1, 2]

>  <tasks>  (558) 
probe_placing close_aromatic_ring close_aromatic_ring close_aromatic_ring ring_built build_to_Nac build_DB_to_Cs2 build_SB_to_Cs2 build_to_Nd0 close_aliphatic_ring close_aliphatic_ring close_aliphatic_ring close_aliphatic_ring

>  <prot_clashes>  (558) 
9

>  <NBS phar>  (558) 
0.12

>  <NBS_non-phar>  (558) 
0.394767157236735

>  <NBS>  (558) 
0.5147671572367349

>  <source_stage>  (558) 
scored

>  <source_iter>  (558) 
12

>  <source_parent_mol>  (558) 
0

>  <source_scenario>  (558) 
1 2 3 1 7 1 0 3 0 2 2 0

>  <source_rank_in_scored_call>  (558) 
73

>  <source_current_task>  (558) 
no_task

>  <scenario>  (558) 
1 2 3 1 7 1 0 3 0 2 2

>  <protected_ring_attachments>  (558) 
3,1,0,2|1,0,2;4,5,0,2|5,0,2;11,10,9,2|10,9,2;12,13,9,2|13,9,2

>  <current_task>  (558) 
no_task

>  <rotatable_bond_torsions>  (558) 
1,0,2,9;0,2,9,10;0,5,6,8

>  <reason_to_skip>  (558) 
global_duplicate

>  <global_duplicate_rmsd>  (558) 
0.0

>  <global_duplicate_old_source_iter>  (558) 
11

>  <global_duplicate_old_source_parent_mol>  (558) 
2

>  <global_duplicate_old_index>  (558) 
NA

>  <global_duplicate_rotatable_bond_torsions>  (558) 
1,0,2,9;0,2,9,10;0,5,6,8

>  <global_duplicate_old_rotatable_bond_torsions>  (558) 
1,0,2,9;0,2,9,10;0,5,6,8

>  <global_duplicate_last_growth_torsion>  (558) 
(10, 11, 12, 13)

>  <global_duplicate_protected_ring_attachments>  (558) 
3,1,0,2|1,0,2;4,5,0,2|5,0,2;11,10,9,2|10,9,2;12,13,9,2|13,9,2

>  <global_duplicate_old_last_growth_torsion>  (558) 
(10, 11, 12, 13)

>  <global_duplicate_old_protected_ring_attachments>  (558) 
3,1,0,2|1,0,2;4,5,0,2|5,0,2;11,10,9,2|10,9,2;12,13,9,2|13,9,2

$$$$

     RDKit          3D

 15 16  0  0  0  0  0  0  0  0999 V2000
  -28.4540   -6.4760  -30.7330 C   0  0  0  0  0  0  0  0  0  0  0  0
  -27.8780   -6.6790  -31.9540 N   0  0  0  0  0  0  0  0  0  0  0  0
  -28.8120   -7.6400  -29.8560 N   0  0  0  0  0  0  0  0  0  0  0  0
  -27.6270   -5.4840  -32.5130 C   0  0  0  0  0  0  0  0  0  0  0  0
  -28.0550   -4.5440  -31.6240 N   0  0  0  0  0  0  0  0  0  0  0  0
  -28.5490   -5.1430  -30.5560 N   0  0  0  0  0  0  0  0  0  0  0  0
  -29.0460   -4.4900  -29.4460 C   0  0  0  0  0  0  0  0  0  0  0  0
  -29.5530   -5.0380  -28.4810 O   0  0  0  0  0  0  0  0  0  0  0  0
  -28.8630   -2.9650  -29.2720 C   0  0  0  0  0  0  0  0  0  0  0  0
  -28.9490   -8.9940  -30.2010 C   0  0  2  0  0  0  0  0  0  0  0  0
  -28.1220   -9.8950  -29.2740 C   0  0  0  0  0  0  0  0  0  0  0  0
  -28.5480  -11.1790  -29.5200 O   0  0  0  0  0  0  0  0  0  0  0  0
  -29.2950  -11.2370  -30.6680 C   0  0  0  0  0  0  0  0  0  0  0  0
  -29.0940   -9.9050  -31.3870 C   0  0  0  0  0  0  0  0  0  0  0  0
  -28.6140   -2.6350  -27.8690 C   0  0  0  0  0  0  0  0  0  0  0  0
  1  2  2  0
  1  6  1  0
  1  3  1  0
  2  4  1  0
 10  3  1  6
  4  5  2  0
  5  6  1  0
  6  7  1  0
  7  9  1  0
  7  8  2  0
 10 14  1  0
 10 11  1  0
 11 12  1  0
 12 13  1  0
 13 14  1  0
  9 15  1  0
M  END
>  <name>  (559) 
Car Nac Nd0 Car Nac Nac Cs2 .=O Cs3 C3r C3r O_a C3r C3r Cs3

>  <indices>  (559) 
[0, 1, 2]

>  <tasks>  (559) 
probe_placing close_aromatic_ring close_aromatic_ring close_aromatic_ring ring_built build_to_Nac build_DB_to_Cs2 build_SB_to_Cs2 build_to_Nd0 close_aliphatic_ring close_aliphatic_ring close_aliphatic_ring close_aliphatic_ring

>  <prot_clashes>  (559) 
6

>  <NBS phar>  (559) 
0.1

>  <NBS_non-phar>  (559) 
0.3666138013203939

>  <NBS>  (559) 
0.4666138013203939

>  <source_stage>  (559) 
scored

>  <source_iter>  (559) 
12

>  <source_parent_mol>  (559) 
0

>  <source_scenario>  (559) 
1 2 3 1 7 1 0 3 0 2 2 0

>  <source_rank_in_scored_call>  (559) 
86

>  <source_current_task>  (559) 
no_task

>  <scenario>  (559) 
1 2 3 1 7 1 0 3 0 2 2

>  <protected_ring_attachments>  (559) 
3,1,0,2|1,0,2;4,5,0,2|5,0,2;11,10,9,2|10,9,2;12,13,9,2|13,9,2

>  <current_task>  (559) 
no_task

>  <rotatable_bond_torsions>  (559) 
1,0,2,9;0,2,9,10;0,5,6,8

>  <reason_to_skip>  (559) 
global_duplicate

>  <global_duplicate_rmsd>  (559) 
0.0

>  <global_duplicate_old_source_iter>  (559) 
11

>  <global_duplicate_old_source_parent_mol>  (559) 
2

>  <global_duplicate_old_index>  (559) 
NA

>  <global_duplicate_rotatable_bond_torsions>  (559) 
1,0,2,9;0,2,9,10;0,5,6,8

>  <global_duplicate_old_rotatable_bond_torsions>  (559) 
1,0,2,9;0,2,9,10;0,5,6,8

>  <global_duplicate_last_growth_torsion>  (559) 
(10, 11, 12, 13)

>  <global_duplicate_protected_ring_attachments>  (559) 
3,1,0,2|1,0,2;4,5,0,2|5,0,2;11,10,9,2|10,9,2;12,13,9,2|13,9,2

>  <global_duplicate_old_last_growth_torsion>  (559) 
(10, 11, 12, 13)

>  <global_duplicate_old_protected_ring_attachments>  (559) 
3,1,0,2|1,0,2;4,5,0,2|5,0,2;11,10,9,2|10,9,2;12,13,9,2|13,9,2

$$$$

     RDKit          3D

 15 16  0  0  0  0  0  0  0  0999 V2000
  -28.4470   -6.5480  -30.7580 C   0  0  0  0  0  0  0  0  0  0  0  0
  -27.9000   -6.7000  -31.9990 N   0  0  0  0  0  0  0  0  0  0  0  0
  -28.7890   -7.7470  -29.9230 N   0  0  0  0  0  0  0  0  0  0  0  0
  -27.6590   -5.4830  -32.5120 C   0  0  0  0  0  0  0  0  0  0  0  0
  -28.0630   -4.5810  -31.5740 N   0  0  0  0  0  0  0  0  0  0  0  0
  -28.5350   -5.2230  -30.5220 N   0  0  0  0  0  0  0  0  0  0  0  0
  -29.0040   -4.6170  -29.3740 C   0  0  0  0  0  0  0  0  0  0  0  0
  -29.4910   -5.2050  -28.4220 O   0  0  0  0  0  0  0  0  0  0  0  0
  -28.8120   -3.1020  -29.1390 C   0  0  0  0  0  0  0  0  0  0  0  0
  -28.9380   -9.0860  -30.3220 C   0  0  2  0  0  0  0  0  0  0  0  0
  -28.0940  -10.0270  -29.4530 C   0  0  0  0  0  0  0  0  0  0  0  0
  -28.5290  -11.2990  -29.7450 O   0  0  0  0  0  0  0  0  0  0  0  0
  -29.3010  -11.3050  -30.8760 C   0  0  0  0  0  0  0  0  0  0  0  0
  -29.1130   -9.9450  -31.5430 C   0  0  0  0  0  0  0  0  0  0  0  0
  -27.8630   -2.7940  -28.0130 C   0  0  0  0  0  0  0  0  0  0  0  0
  1  2  2  0
  1  6  1  0
  1  3  1  0
  2  4  1  0
 10  3  1  6
  4  5  2  0
  5  6  1  0
  6  7  1  0
  7  9  1  0
  7  8  2  0
 10 14  1  0
 10 11  1  0
 11 12  1  0
 12 13  1  0
 13 14  1  0
  9 15  1  0
M  END
>  <name>  (560) 
Car Nac Nd0 Car Nac Nac Cs2 .=O Cs3 C3r C3r O_a C3r C3r Cs3

>  <indices>  (560) 
[0, 1, 2]

>  <tasks>  (560) 
probe_placing close_aromatic_ring close_aromatic_ring close_aromatic_ring ring_built build_to_Nac build_DB_to_Cs2 build_SB_to_Cs2 build_to_Nd0 close_aliphatic_ring close_aliphatic_ring close_aliphatic_ring close_aliphatic_ring

>  <prot_clashes>  (560) 
6

>  <NBS phar>  (560) 
0.12

>  <NBS_non-phar>  (560) 
0.344640572865804

>  <NBS>  (560) 
0.464640572865804

>  <source_stage>  (560) 
scored

>  <source_iter>  (560) 
12

>  <source_parent_mol>  (560) 
0

>  <source_scenario>  (560) 
1 2 3 1 7 1 0 3 0 2 2 0

>  <source_rank_in_scored_call>  (560) 
87

>  <source_current_task>  (560) 
no_task

>  <scenario>  (560) 
1 2 3 1 7 1 0 3 0 2 2

>  <protected_ring_attachments>  (560) 
3,1,0,2|1,0,2;4,5,0,2|5,0,2;11,10,9,2|10,9,2;12,13,9,2|13,9,2

>  <current_task>  (560) 
no_task

>  <rotatable_bond_torsions>  (560) 
1,0,2,9;0,2,9,10;0,5,6,8

>  <reason_to_skip>  (560) 
global_duplicate

>  <global_duplicate_rmsd>  (560) 
0.0

>  <global_duplicate_old_source_iter>  (560) 
11

>  <global_duplicate_old_source_parent_mol>  (560) 
2

>  <global_duplicate_old_index>  (560) 
NA

>  <global_duplicate_rotatable_bond_torsions>  (560) 
1,0,2,9;0,2,9,10;0,5,6,8

>  <global_duplicate_old_rotatable_bond_torsions>  (560) 
1,0,2,9;0,2,9,10;0,5,6,8

>  <global_duplicate_last_growth_torsion>  (560) 
(10, 11, 12, 13)

>  <global_duplicate_protected_ring_attachments>  (560) 
3,1,0,2|1,0,2;4,5,0,2|5,0,2;11,10,9,2|10,9,2;12,13,9,2|13,9,2

>  <global_duplicate_old_last_growth_torsion>  (560) 
(10, 11, 12, 13)

>  <global_duplicate_old_protected_ring_attachments>  (560) 
3,1,0,2|1,0,2;4,5,0,2|5,0,2;11,10,9,2|10,9,2;12,13,9,2|13,9,2

$$$$

     RDKit          3D

 14 15  0  0  0  0  0  0  0  0999 V2000
  -28.2800   -6.6470  -30.7940 C   0  0  0  0  0  0  0  0  0  0  0  0
  -27.7420   -6.7050  -32.0470 N   0  0  0  0  0  0  0  0  0  0  0  0
  -28.5160   -7.9030  -30.0060 N   0  0  0  0  0  0  0  0  0  0  0  0
  -27.6040   -5.4520  -32.5130 C   0  0  0  0  0  0  0  0  0  0  0  0
  -28.0630   -4.6240  -31.5330 N   0  0  0  0  0  0  0  0  0  0  0  0
  -28.4670   -5.3450  -30.5020 N   0  0  0  0  0  0  0  0  0  0  0  0
  -28.9640   -4.8240  -29.3260 C   0  0  0  0  0  0  0  0  0  0  0  0
  -29.3900   -5.4850  -28.3930 O   0  0  0  0  0  0  0  0  0  0  0  0
  -28.8880   -3.3090  -29.0300 C   0  0  0  0  0  0  0  0  0  0  0  0
  -28.2450   -9.1500  -30.5790 C   0  0  1  0  0  0  0  0  0  0  0  0
  -28.1070  -10.0760  -29.4140 C   0  0  0  0  0  0  0  0  0  0  0  0
  -28.7550  -11.2490  -29.6780 O   0  0  0  0  0  0  0  0  0  0  0  0
  -29.5660  -11.1100  -30.7740 C   0  0  0  0  0  0  0  0  0  0  0  0
  -29.1800   -9.8680  -31.5170 C   0  0  0  0  0  0  0  0  0  0  0  0
  1  2  2  0
  1  6  1  0
  1  3  1  0
  2  4  1  0
 10  3  1  1
  4  5  2  0
  5  6  1  0
  6  7  1  0
  7  9  1  0
  7  8  2  0
 10 14  1  0
 10 11  1  0
 11 12  1  0
 12 13  1  0
 13 14  1  0
M  END
>  <name>  (561) 
Car Nac Nd0 Car Nac Nac Cs2 .=O Cs3 C3r C3r O_a C3r C3r

>  <indices>  (561) 
[0, 1, 2]

>  <tasks>  (561) 
probe_placing close_aromatic_ring close_aromatic_ring close_aromatic_ring ring_built build_to_Nac build_DB_to_Cs2 build_SB_to_Cs2 build_to_Nd0 close_aliphatic_ring close_aliphatic_ring close_aliphatic_ring

>  <prot_clashes>  (561) 
6

>  <NBS phar>  (561) 
0.2

>  <NBS_non-phar>  (561) 
0.37739678791591097

>  <NBS>  (561) 
0.577396787915911

>  <source_stage>  (561) 
scored

>  <source_iter>  (561) 
11

>  <source_parent_mol>  (561) 
1

>  <source_scenario>  (561) 
1 2 3 1 7 1 0 3 0 5 1

>  <source_rank_in_scored_call>  (561) 
1

>  <source_current_task>  (561) 
close_aliphatic_ring

>  <scenario>  (561) 
1 2 3 1 7 1 0 3 0 5

>  <protected_ring_attachments>  (561) 
3,1,0,2|1,0,2;4,5,0,2|5,0,2

>  <current_task>  (561) 
no_task

>  <rotatable_bond_torsions>  (561) 
1,0,2,9;0,2,9,10;0,5,6,8;2,9,10,11;9,10,11,12

$$$$

     RDKit          3D

 15 16  0  0  0  0  0  0  0  0999 V2000
  -28.5150   -6.9030  -30.6470 C   0  0  0  0  0  0  0  0  0  0  0  0
  -27.9060   -7.2090  -31.8300 N   0  0  0  0  0  0  0  0  0  0  0  0
  -28.9280   -7.9930  -29.6990 N   0  0  0  0  0  0  0  0  0  0  0  0
  -27.6120   -6.0620  -32.4670 C   0  0  0  0  0  0  0  0  0  0  0  0
  -28.0480   -5.0510  -31.6640 N   0  0  0  0  0  0  0  0  0  0  0  0
  -28.5880   -5.5610  -30.5720 N   0  0  0  0  0  0  0  0  0  0  0  0
  -29.1080   -4.8180  -29.5320 C   0  0  0  0  0  0  0  0  0  0  0  0
  -29.6580   -5.2810  -28.5460 O   0  0  0  0  0  0  0  0  0  0  0  0
  -28.8970   -3.2870  -29.4630 C   0  0  0  0  0  0  0  0  0  0  0  0
  -28.6980   -9.4200  -30.0740 C   0  0  1  0  0  0  0  0  0  0  0  0
  -29.4420   -9.3580  -31.3870 C   0  0  0  0  0  0  0  0  0  0  0  0
  -30.0700  -10.5710  -31.6640 O   0  0  0  0  0  0  0  0  0  0  0  0
  -29.1860  -11.6100  -31.7560 C   0  0  0  0  0  0  0  0  0  0  0  0
  -28.4280  -11.7860  -30.4720 C   0  0  0  0  0  0  0  0  0  0  0  0
  -27.6730  -10.5120  -30.1950 C   0  0  0  0  0  0  0  0  0  0  0  0
  1  2  2  0
  1  6  1  0
  1  3  1  0
  2  4  1  0
 10  3  1  6
  4  5  2  0
  5  6  1  0
  6  7  1  0
  7  9  1  0
  7  8  2  0
 10 11  1  0
 10 15  1  0
 11 12  1  0
 12 13  1  0
 13 14  1  0
 14 15  1  0
M  END
>  <name>  (562) 
Car Nac Nd0 Car Nac Nac Cs2 .=O Cs3 C3r C3r O_a C3r C3r C3r

>  <indices>  (562) 
[0, 1, 2]

>  <tasks>  (562) 
probe_placing close_aromatic_ring close_aromatic_ring close_aromatic_ring ring_built build_to_Nac build_DB_to_Cs2 build_SB_to_Cs2 build_to_Nd0 close_aliphatic_ring close_aliphatic_ring close_aliphatic_ring close_aliphatic_ring

>  <prot_clashes>  (562) 
10

>  <NBS phar>  (562) 
0.2

>  <NBS_non-phar>  (562) 
0.3221176783243815

>  <NBS>  (562) 
0.5221176783243815

>  <source_stage>  (562) 
scored

>  <source_iter>  (562) 
12

>  <source_parent_mol>  (562) 
1

>  <source_scenario>  (562) 
1 2 3 1 7 1 0 3 1 0 1 1

>  <source_rank_in_scored_call>  (562) 
0

>  <source_current_task>  (562) 
close_aliphatic_ring

>  <scenario>  (562) 
1 2 3 1 7 1 0 3 1 0 1

>  <protected_ring_attachments>  (562) 
3,1,0,2|1,0,2;4,5,0,2|5,0,2

>  <current_task>  (562) 
no_task

>  <rotatable_bond_torsions>  (562) 
1,0,2,9;0,2,9,10;0,5,6,8;2,9,10,11;9,10,11,12;10,11,12,13

$$$$

     RDKit          3D

 14 15  0  0  0  0  0  0  0  0999 V2000
  -28.5240   -6.8690  -30.8280 C   0  0  0  0  0  0  0  0  0  0  0  0
  -27.9970   -6.9550  -32.0850 N   0  0  0  0  0  0  0  0  0  0  0  0
  -28.9130   -8.1120  -30.0780 N   0  0  0  0  0  0  0  0  0  0  0  0
  -27.7050   -5.7130  -32.5110 C   0  0  0  0  0  0  0  0  0  0  0  0
  -28.0600   -4.8660  -31.5040 N   0  0  0  0  0  0  0  0  0  0  0  0
  -28.5500   -5.5630  -30.4960 N   0  0  0  0  0  0  0  0  0  0  0  0
  -28.9810   -5.0230  -29.3020 C   0  0  0  0  0  0  0  0  0  0  0  0
  -29.4840   -5.6560  -28.3890 O   0  0  0  0  0  0  0  0  0  0  0  0
  -28.7190   -3.5390  -28.9590 C   0  0  0  0  0  0  0  0  0  0  0  0
  -28.8780   -9.3590  -31.0140 C   0  0  2  0  0  0  0  0  0  0  0  0
  -29.8490  -10.3180  -30.3300 C   0  0  0  0  0  0  0  0  0  0  0  0
  -29.7000  -11.5280  -30.9680 O   0  0  0  0  0  0  0  0  0  0  0  0
  -28.5740  -11.5290  -31.7530 C   0  0  0  0  0  0  0  0  0  0  0  0
  -27.7650  -10.3050  -31.3880 C   0  0  0  0  0  0  0  0  0  0  0  0
  1  2  2  0
  1  6  1  0
  1  3  1  0
  2  4  1  0
 10  3  1  1
  4  5  2  0
  5  6  1  0
  6  7  1  0
  7  9  1  0
  7  8  2  0
 10 14  1  0
 10 11  1  0
 11 12  1  0
 12 13  1  0
 13 14  1  0
M  END
>  <name>  (563) 
Car Nac Nd0 Car Nac Nac Cs2 .=O Cs3 C3r C3r O_a C3r C3r

>  <indices>  (563) 
[0, 1, 2]

>  <tasks>  (563) 
probe_placing close_aromatic_ring close_aromatic_ring close_aromatic_ring ring_built build_to_Nac build_DB_to_Cs2 build_SB_to_Cs2 build_to_Nd0 close_aliphatic_ring close_aliphatic_ring close_aliphatic_ring

>  <prot_clashes>  (563) 
10

>  <NBS phar>  (563) 
0.0

>  <NBS_non-phar>  (563) 
0.4503822326660156

>  <NBS>  (563) 
0.4503822326660156

>  <source_stage>  (563) 
scored

>  <source_iter>  (563) 
11

>  <source_parent_mol>  (563) 
0

>  <source_scenario>  (563) 
1 2 3 1 7 1 0 3 2 0 0

>  <source_rank_in_scored_call>  (563) 
1

>  <source_current_task>  (563) 
close_aliphatic_ring

>  <scenario>  (563) 
1 2 3 1 7 1 0 3 2 0

>  <protected_ring_attachments>  (563) 
3,1,0,2|1,0,2;4,5,0,2|5,0,2

>  <current_task>  (563) 
no_task

>  <rotatable_bond_torsions>  (563) 
1,0,2,9;0,2,9,10;0,5,6,8;2,9,10,11;9,10,11,12

$$$$

     RDKit          3D

 15 16  0  0  0  0  0  0  0  0999 V2000
  -28.4980   -6.8870  -30.8380 C   0  0  0  0  0  0  0  0  0  0  0  0
  -28.0950   -7.0320  -32.1350 N   0  0  0  0  0  0  0  0  0  0  0  0
  -28.8730   -8.0890  -30.0170 N   0  0  0  0  0  0  0  0  0  0  0  0
  -27.7860   -5.8180  -32.6240 C   0  0  0  0  0  0  0  0  0  0  0  0
  -28.0050   -4.9280  -31.6160 N   0  0  0  0  0  0  0  0  0  0  0  0
  -28.4310   -5.5730  -30.5460 N   0  0  0  0  0  0  0  0  0  0  0  0
  -28.7220   -4.9800  -29.3340 C   0  0  0  0  0  0  0  0  0  0  0  0
  -29.1670   -5.5630  -28.3600 O   0  0  0  0  0  0  0  0  0  0  0  0
  -28.3600   -3.5030  -29.0630 C   0  0  0  0  0  0  0  0  0  0  0  0
  -28.9840   -9.3600  -30.9130 C   0  0  2  0  0  0  0  0  0  0  0  0
  -29.9310  -10.2510  -30.1130 C   0  0  0  0  0  0  0  0  0  0  0  0
  -29.8990  -11.4840  -30.7240 O   0  0  0  0  0  0  0  0  0  0  0  0
  -28.8530  -11.5610  -31.6090 C   0  0  0  0  0  0  0  0  0  0  0  0
  -27.9570  -10.3700  -31.3580 C   0  0  0  0  0  0  0  0  0  0  0  0
  -29.1880   -2.8060  -28.0080 C   0  0  0  0  0  0  0  0  0  0  0  0
  1  2  2  0
  1  6  1  0
  1  3  1  0
  2  4  1  0
 10  3  1  1
  4  5  2  0
  5  6  1  0
  6  7  1  0
  7  9  1  0
  7  8  2  0
 10 14  1  0
 10 11  1  0
 11 12  1  0
 12 13  1  0
 13 14  1  0
  9 15  1  0
M  END
>  <name>  (564) 
Car Nac Nd0 Car Nac Nac Cs2 .=O Cs3 C3r C3r O_a C3r C3r Cs3

>  <indices>  (564) 
[0, 1, 2]

>  <tasks>  (564) 
probe_placing close_aromatic_ring close_aromatic_ring close_aromatic_ring ring_built build_to_Nac build_DB_to_Cs2 build_SB_to_Cs2 build_to_Nd0 close_aliphatic_ring close_aliphatic_ring close_aliphatic_ring close_aliphatic_ring

>  <prot_clashes>  (564) 
10

>  <NBS phar>  (564) 
0.24000000000000005

>  <NBS_non-phar>  (564) 
0.4351234436035156

>  <NBS>  (564) 
0.6751234436035156

>  <source_stage>  (564) 
scored

>  <source_iter>  (564) 
12

>  <source_parent_mol>  (564) 
1

>  <source_scenario>  (564) 
1 2 3 1 7 1 0 3 2 0 0 1

>  <source_rank_in_scored_call>  (564) 
2

>  <source_current_task>  (564) 
no_task

>  <scenario>  (564) 
1 2 3 1 7 1 0 3 2 0 0

>  <protected_ring_attachments>  (564) 
3,1,0,2|1,0,2;4,5,0,2|5,0,2;11,10,9,2|10,9,2;12,13,9,2|13,9,2

>  <current_task>  (564) 
no_task

>  <rotatable_bond_torsions>  (564) 
1,0,2,9;0,2,9,10;0,5,6,8

$$$$

     RDKit          3D

 15 16  0  0  0  0  0  0  0  0999 V2000
  -28.5110   -6.9430  -30.7650 C   0  0  0  0  0  0  0  0  0  0  0  0
  -28.2290   -7.0770  -32.0950 N   0  0  0  0  0  0  0  0  0  0  0  0
  -28.8270   -8.1500  -29.9270 N   0  0  0  0  0  0  0  0  0  0  0  0
  -27.9490   -5.8610  -32.5960 C   0  0  0  0  0  0  0  0  0  0  0  0
  -28.0640   -4.9810  -31.5620 N   0  0  0  0  0  0  0  0  0  0  0  0
  -28.4000   -5.6340  -30.4650 N   0  0  0  0  0  0  0  0  0  0  0  0
  -28.5730   -5.0530  -29.2260 C   0  0  0  0  0  0  0  0  0  0  0  0
  -28.9350   -5.6420  -28.2210 O   0  0  0  0  0  0  0  0  0  0  0  0
  -28.1670   -3.5830  -28.9720 C   0  0  0  0  0  0  0  0  0  0  0  0
  -29.0360   -9.4090  -30.8240 C   0  0  2  0  0  0  0  0  0  0  0  0
  -29.9190  -10.2980  -29.9520 C   0  0  0  0  0  0  0  0  0  0  0  0
  -29.9600  -11.5230  -30.5770 O   0  0  0  0  0  0  0  0  0  0  0  0
  -28.9990  -11.6030  -31.5540 C   0  0  0  0  0  0  0  0  0  0  0  0
  -28.0680  -10.4260  -31.3720 C   0  0  0  0  0  0  0  0  0  0  0  0
  -29.1770   -2.8690  -28.1320 C   0  0  0  0  0  0  0  0  0  0  0  0
  1  2  2  0
  1  6  1  0
  1  3  1  0
  2  4  1  0
 10  3  1  1
  4  5  2  0
  5  6  1  0
  6  7  1  0
  7  9  1  0
  7  8  2  0
 10 14  1  0
 10 11  1  0
 11 12  1  0
 12 13  1  0
 13 14  1  0
  9 15  1  0
M  END
>  <name>  (565) 
Car Nac Nd0 Car Nac Nac Cs2 .=O Cs3 C3r C3r O_a C3r C3r Cs3

>  <indices>  (565) 
[0, 1, 2]

>  <tasks>  (565) 
probe_placing close_aromatic_ring close_aromatic_ring close_aromatic_ring ring_built build_to_Nac build_DB_to_Cs2 build_SB_to_Cs2 build_to_Nd0 close_aliphatic_ring close_aliphatic_ring close_aliphatic_ring close_aliphatic_ring

>  <prot_clashes>  (565) 
10

>  <NBS phar>  (565) 
0.22000000000000003

>  <NBS_non-phar>  (565) 
0.42513351440429686

>  <NBS>  (565) 
0.6451335144042969

>  <source_stage>  (565) 
scored

>  <source_iter>  (565) 
12

>  <source_parent_mol>  (565) 
1

>  <source_scenario>  (565) 
1 2 3 1 7 1 0 3 2 0 0 1

>  <source_rank_in_scored_call>  (565) 
5

>  <source_current_task>  (565) 
no_task

>  <scenario>  (565) 
1 2 3 1 7 1 0 3 2 0 0

>  <protected_ring_attachments>  (565) 
3,1,0,2|1,0,2;4,5,0,2|5,0,2;11,10,9,2|10,9,2;12,13,9,2|13,9,2

>  <current_task>  (565) 
no_task

>  <rotatable_bond_torsions>  (565) 
1,0,2,9;0,2,9,10;0,5,6,8

$$$$

     RDKit          3D

 15 16  0  0  0  0  0  0  0  0999 V2000
  -28.5080   -6.9640  -30.7310 C   0  0  0  0  0  0  0  0  0  0  0  0
  -28.2230   -7.0770  -32.0620 N   0  0  0  0  0  0  0  0  0  0  0  0
  -28.8460   -8.1820  -29.9180 N   0  0  0  0  0  0  0  0  0  0  0  0
  -27.9230   -5.8560  -32.5390 C   0  0  0  0  0  0  0  0  0  0  0  0
  -28.0280   -4.9940  -31.4880 N   0  0  0  0  0  0  0  0  0  0  0  0
  -28.3790   -5.6620  -30.4060 N   0  0  0  0  0  0  0  0  0  0  0  0
  -28.5480   -5.1030  -29.1560 C   0  0  0  0  0  0  0  0  0  0  0  0
  -28.9240   -5.7060  -28.1650 O   0  0  0  0  0  0  0  0  0  0  0  0
  -28.1210   -3.6450  -28.8720 C   0  0  0  0  0  0  0  0  0  0  0  0
  -29.0710   -9.4200  -30.8400 C   0  0  2  0  0  0  0  0  0  0  0  0
  -29.9710  -10.3120  -29.9880 C   0  0  0  0  0  0  0  0  0  0  0  0
  -30.0270  -11.5240  -30.6370 O   0  0  0  0  0  0  0  0  0  0  0  0
  -29.0640  -11.5990  -31.6110 C   0  0  0  0  0  0  0  0  0  0  0  0
  -28.1150  -10.4410  -31.4030 C   0  0  0  0  0  0  0  0  0  0  0  0
  -29.1880   -2.8220  -28.1990 C   0  0  0  0  0  0  0  0  0  0  0  0
  1  2  2  0
  1  6  1  0
  1  3  1  0
  2  4  1  0
 10  3  1  1
  4  5  2  0
  5  6  1  0
  6  7  1  0
  7  9  1  0
  7  8  2  0
 10 14  1  0
 10 11  1  0
 11 12  1  0
 12 13  1  0
 13 14  1  0
  9 15  1  0
M  END
>  <name>  (566) 
Car Nac Nd0 Car Nac Nac Cs2 .=O Cs3 C3r C3r O_a C3r C3r Cs3

>  <indices>  (566) 
[0, 1, 2]

>  <tasks>  (566) 
probe_placing close_aromatic_ring close_aromatic_ring close_aromatic_ring ring_built build_to_Nac build_DB_to_Cs2 build_SB_to_Cs2 build_to_Nd0 close_aliphatic_ring close_aliphatic_ring close_aliphatic_ring close_aliphatic_ring

>  <prot_clashes>  (566) 
10

>  <NBS phar>  (566) 
0.22000000000000003

>  <NBS_non-phar>  (566) 
0.42265555063883464

>  <NBS>  (566) 
0.6426555506388347

>  <source_stage>  (566) 
scored

>  <source_iter>  (566) 
12

>  <source_parent_mol>  (566) 
1

>  <source_scenario>  (566) 
1 2 3 1 7 1 0 3 2 0 0 1

>  <source_rank_in_scored_call>  (566) 
6

>  <source_current_task>  (566) 
no_task

>  <scenario>  (566) 
1 2 3 1 7 1 0 3 2 0 0

>  <protected_ring_attachments>  (566) 
3,1,0,2|1,0,2;4,5,0,2|5,0,2;11,10,9,2|10,9,2;12,13,9,2|13,9,2

>  <current_task>  (566) 
no_task

>  <rotatable_bond_torsions>  (566) 
1,0,2,9;0,2,9,10;0,5,6,8

$$$$

     RDKit          3D

 15 16  0  0  0  0  0  0  0  0999 V2000
  -28.4710   -6.8820  -30.7850 C   0  0  0  0  0  0  0  0  0  0  0  0
  -28.0310   -6.9880  -32.0730 N   0  0  0  0  0  0  0  0  0  0  0  0
  -28.8760   -8.1070  -30.0150 N   0  0  0  0  0  0  0  0  0  0  0  0
  -27.7020   -5.7600  -32.5140 C   0  0  0  0  0  0  0  0  0  0  0  0
  -27.9480   -4.9020  -31.4840 N   0  0  0  0  0  0  0  0  0  0  0  0
  -28.4090   -5.5780  -30.4490 N   0  0  0  0  0  0  0  0  0  0  0  0
  -28.7340   -5.0230  -29.2290 C   0  0  0  0  0  0  0  0  0  0  0  0
  -29.2100   -5.6350  -28.2870 O   0  0  0  0  0  0  0  0  0  0  0  0
  -28.3740   -3.5570  -28.8990 C   0  0  0  0  0  0  0  0  0  0  0  0
  -28.9650   -9.3490  -30.9540 C   0  0  2  0  0  0  0  0  0  0  0  0
  -29.9390  -10.2610  -30.2120 C   0  0  0  0  0  0  0  0  0  0  0  0
  -29.8940  -11.4730  -30.8610 O   0  0  0  0  0  0  0  0  0  0  0  0
  -28.8210  -11.5280  -31.7160 C   0  0  0  0  0  0  0  0  0  0  0  0
  -27.9280  -10.3490  -31.4000 C   0  0  0  0  0  0  0  0  0  0  0  0
  -29.1880   -2.6290  -29.7970 C   0  0  0  0  0  0  0  0  0  0  0  0
  1  2  2  0
  1  6  1  0
  1  3  1  0
  2  4  1  0
 10  3  1  1
  4  5  2  0
  5  6  1  0
  6  7  1  0
  7  9  1  0
  7  8  2  0
 10 14  1  0
 10 11  1  0
 11 12  1  0
 12 13  1  0
 13 14  1  0
  9 15  1  0
M  END
>  <name>  (567) 
Car Nac Nd0 Car Nac Nac Cs2 .=O Cs3 C3r C3r O_a C3r C3r Cs3

>  <indices>  (567) 
[0, 1, 2]

>  <tasks>  (567) 
probe_placing close_aromatic_ring close_aromatic_ring close_aromatic_ring ring_built build_to_Nac build_DB_to_Cs2 build_SB_to_Cs2 build_to_Nd0 close_aliphatic_ring close_aliphatic_ring close_aliphatic_ring close_aliphatic_ring

>  <prot_clashes>  (567) 
10

>  <NBS phar>  (567) 
0.13999999999999999

>  <NBS_non-phar>  (567) 
0.3937394142150879

>  <NBS>  (567) 
0.5337394142150879

>  <source_stage>  (567) 
scored

>  <source_iter>  (567) 
12

>  <source_parent_mol>  (567) 
1

>  <source_scenario>  (567) 
1 2 3 1 7 1 0 3 2 0 0 1

>  <source_rank_in_scored_call>  (567) 
17

>  <source_current_task>  (567) 
no_task

>  <scenario>  (567) 
1 2 3 1 7 1 0 3 2 0 0

>  <protected_ring_attachments>  (567) 
3,1,0,2|1,0,2;4,5,0,2|5,0,2;11,10,9,2|10,9,2;12,13,9,2|13,9,2

>  <current_task>  (567) 
no_task

>  <rotatable_bond_torsions>  (567) 
1,0,2,9;0,2,9,10;0,5,6,8

$$$$

     RDKit          3D

 15 16  0  0  0  0  0  0  0  0999 V2000
  -28.4660   -6.8900  -30.7860 C   0  0  0  0  0  0  0  0  0  0  0  0
  -28.0190   -6.9980  -32.0720 N   0  0  0  0  0  0  0  0  0  0  0  0
  -28.8750   -8.1140  -30.0160 N   0  0  0  0  0  0  0  0  0  0  0  0
  -27.6880   -5.7710  -32.5130 C   0  0  0  0  0  0  0  0  0  0  0  0
  -27.9370   -4.9110  -31.4860 N   0  0  0  0  0  0  0  0  0  0  0  0
  -28.4030   -5.5860  -30.4510 N   0  0  0  0  0  0  0  0  0  0  0  0
  -28.7330   -5.0290  -29.2330 C   0  0  0  0  0  0  0  0  0  0  0  0
  -29.2140   -5.6390  -28.2930 O   0  0  0  0  0  0  0  0  0  0  0  0
  -28.3730   -3.5630  -28.9040 C   0  0  0  0  0  0  0  0  0  0  0  0
  -28.9620   -9.3570  -30.9540 C   0  0  2  0  0  0  0  0  0  0  0  0
  -29.9400  -10.2660  -30.2150 C   0  0  0  0  0  0  0  0  0  0  0  0
  -29.8930  -11.4800  -30.8620 O   0  0  0  0  0  0  0  0  0  0  0  0
  -28.8170  -11.5370  -31.7130 C   0  0  0  0  0  0  0  0  0  0  0  0
  -27.9240  -10.3590  -31.3950 C   0  0  0  0  0  0  0  0  0  0  0  0
  -29.1880   -2.5450  -29.7620 C   0  0  0  0  0  0  0  0  0  0  0  0
  1  2  2  0
  1  6  1  0
  1  3  1  0
  2  4  1  0
 10  3  1  1
  4  5  2  0
  5  6  1  0
  6  7  1  0
  7  9  1  0
  7  8  2  0
 10 14  1  0
 10 11  1  0
 11 12  1  0
 12 13  1  0
 13 14  1  0
  9 15  1  0
M  END
>  <name>  (568) 
Car Nac Nd0 Car Nac Nac Cs2 .=O Cs3 C3r C3r O_a C3r C3r Cs3

>  <indices>  (568) 
[0, 1, 2]

>  <tasks>  (568) 
probe_placing close_aromatic_ring close_aromatic_ring close_aromatic_ring ring_built build_to_Nac build_DB_to_Cs2 build_SB_to_Cs2 build_to_Nd0 close_aliphatic_ring close_aliphatic_ring close_aliphatic_ring close_aliphatic_ring

>  <prot_clashes>  (568) 
10

>  <NBS phar>  (568) 
0.12

>  <NBS_non-phar>  (568) 
0.4023409843444824

>  <NBS>  (568) 
0.5223409843444824

>  <source_stage>  (568) 
scored

>  <source_iter>  (568) 
12

>  <source_parent_mol>  (568) 
1

>  <source_scenario>  (568) 
1 2 3 1 7 1 0 3 2 0 0 1

>  <source_rank_in_scored_call>  (568) 
19

>  <source_current_task>  (568) 
no_task

>  <scenario>  (568) 
1 2 3 1 7 1 0 3 2 0 0

>  <protected_ring_attachments>  (568) 
3,1,0,2|1,0,2;4,5,0,2|5,0,2;11,10,9,2|10,9,2;12,13,9,2|13,9,2

>  <current_task>  (568) 
no_task

>  <rotatable_bond_torsions>  (568) 
1,0,2,9;0,2,9,10;0,5,6,8

$$$$

     RDKit          3D

 15 16  0  0  0  0  0  0  0  0999 V2000
  -28.5240   -6.8660  -30.8240 C   0  0  0  0  0  0  0  0  0  0  0  0
  -28.0140   -6.9640  -32.0870 N   0  0  0  0  0  0  0  0  0  0  0  0
  -28.9430   -8.0990  -30.0740 N   0  0  0  0  0  0  0  0  0  0  0  0
  -27.6880   -5.7300  -32.5130 C   0  0  0  0  0  0  0  0  0  0  0  0
  -28.0050   -4.8760  -31.4990 N   0  0  0  0  0  0  0  0  0  0  0  0
  -28.5050   -5.5610  -30.4880 N   0  0  0  0  0  0  0  0  0  0  0  0
  -28.9060   -5.0120  -29.2880 C   0  0  0  0  0  0  0  0  0  0  0  0
  -29.4180   -5.6320  -28.3710 O   0  0  0  0  0  0  0  0  0  0  0  0
  -28.5940   -3.5380  -28.9430 C   0  0  0  0  0  0  0  0  0  0  0  0
  -28.9580   -9.3430  -31.0140 C   0  0  2  0  0  0  0  0  0  0  0  0
  -29.9500  -10.2740  -30.3220 C   0  0  0  0  0  0  0  0  0  0  0  0
  -29.8460  -11.4860  -30.9650 O   0  0  0  0  0  0  0  0  0  0  0  0
  -28.7300  -11.5190  -31.7630 C   0  0  0  0  0  0  0  0  0  0  0  0
  -27.8790  -10.3220  -31.4030 C   0  0  0  0  0  0  0  0  0  0  0  0
  -28.8130   -2.5480  -30.0890 C   0  0  0  0  0  0  0  0  0  0  0  0
  1  2  2  0
  1  6  1  0
  1  3  1  0
  2  4  1  0
 10  3  1  1
  4  5  2  0
  5  6  1  0
  6  7  1  0
  7  9  1  0
  7  8  2  0
 10 14  1  0
 10 11  1  0
 11 12  1  0
 12 13  1  0
 13 14  1  0
  9 15  1  0
M  END
>  <name>  (569) 
Car Nac Nd0 Car Nac Nac Cs2 .=O Cs3 C3r C3r O_a C3r C3r Cs3

>  <indices>  (569) 
[0, 1, 2]

>  <tasks>  (569) 
probe_placing close_aromatic_ring close_aromatic_ring close_aromatic_ring ring_built build_to_Nac build_DB_to_Cs2 build_SB_to_Cs2 build_to_Nd0 close_aliphatic_ring close_aliphatic_ring close_aliphatic_ring close_aliphatic_ring

>  <prot_clashes>  (569) 
8

>  <NBS phar>  (569) 
0.12

>  <NBS_non-phar>  (569) 
0.383181889851888

>  <NBS>  (569) 
0.503181889851888

>  <source_stage>  (569) 
scored

>  <source_iter>  (569) 
12

>  <source_parent_mol>  (569) 
1

>  <source_scenario>  (569) 
1 2 3 1 7 1 0 3 2 0 0 1

>  <source_rank_in_scored_call>  (569) 
24

>  <source_current_task>  (569) 
no_task

>  <scenario>  (569) 
1 2 3 1 7 1 0 3 2 0 0

>  <protected_ring_attachments>  (569) 
3,1,0,2|1,0,2;4,5,0,2|5,0,2;11,10,9,2|10,9,2;12,13,9,2|13,9,2

>  <current_task>  (569) 
no_task

>  <rotatable_bond_torsions>  (569) 
1,0,2,9;0,2,9,10;0,5,6,8

$$$$

     RDKit          3D

 15 16  0  0  0  0  0  0  0  0999 V2000
  -28.6060   -6.7380  -30.6110 C   0  0  0  0  0  0  0  0  0  0  0  0
  -28.1650   -7.0650  -31.8620 N   0  0  0  0  0  0  0  0  0  0  0  0
  -28.9870   -7.8130  -29.6320 N   0  0  0  0  0  0  0  0  0  0  0  0
  -27.8590   -5.9310  -32.5160 C   0  0  0  0  0  0  0  0  0  0  0  0
  -28.1190   -4.9060  -31.6560 N   0  0  0  0  0  0  0  0  0  0  0  0
  -28.5650   -5.3950  -30.5140 N   0  0  0  0  0  0  0  0  0  0  0  0
  -28.8990   -4.6360  -29.4110 C   0  0  0  0  0  0  0  0  0  0  0  0
  -29.3620   -5.0770  -28.3720 O   0  0  0  0  0  0  0  0  0  0  0  0
  -28.5640   -3.1280  -29.3510 C   0  0  0  0  0  0  0  0  0  0  0  0
  -29.0560   -9.2040  -30.3340 C   0  0  2  0  0  0  0  0  0  0  0  0
  -30.0120   -9.9850  -29.4360 C   0  0  0  0  0  0  0  0  0  0  0  0
  -29.9470  -11.2930  -29.8580 O   0  0  0  0  0  0  0  0  0  0  0  0
  -28.8750  -11.4810  -30.6950 C   0  0  0  0  0  0  0  0  0  0  0  0
  -28.0030  -10.2500  -30.5990 C   0  0  0  0  0  0  0  0  0  0  0  0
  -28.8870   -2.4870  -28.0390 C   0  0  0  0  0  0  0  0  0  0  0  0
  1  2  2  0
  1  6  1  0
  1  3  1  0
  2  4  1  0
 10  3  1  1
  4  5  2  0
  5  6  1  0
  6  7  1  0
  7  9  1  0
  7  8  2  0
 10 14  1  0
 10 11  1  0
 11 12  1  0
 12 13  1  0
 13 14  1  0
  9 15  1  0
M  END
>  <name>  (570) 
Car Nac Nd0 Car Nac Nac Cs2 .=O Cs3 C3r C3r O_a C3r C3r Cs3

>  <indices>  (570) 
[0, 1, 2]

>  <tasks>  (570) 
probe_placing close_aromatic_ring close_aromatic_ring close_aromatic_ring ring_built build_to_Nac build_DB_to_Cs2 build_SB_to_Cs2 build_to_Nd0 close_aliphatic_ring close_aliphatic_ring close_aliphatic_ring close_aliphatic_ring

>  <prot_clashes>  (570) 
9

>  <NBS phar>  (570) 
0.12

>  <NBS_non-phar>  (570) 
0.37669490178426107

>  <NBS>  (570) 
0.49669490178426107

>  <source_stage>  (570) 
scored

>  <source_iter>  (570) 
12

>  <source_parent_mol>  (570) 
1

>  <source_scenario>  (570) 
1 2 3 1 7 1 0 3 2 0 0 1

>  <source_rank_in_scored_call>  (570) 
29

>  <source_current_task>  (570) 
no_task

>  <scenario>  (570) 
1 2 3 1 7 1 0 3 2 0 0

>  <protected_ring_attachments>  (570) 
3,1,0,2|1,0,2;4,5,0,2|5,0,2;11,10,9,2|10,9,2;12,13,9,2|13,9,2

>  <current_task>  (570) 
no_task

>  <rotatable_bond_torsions>  (570) 
1,0,2,9;0,2,9,10;0,5,6,8

$$$$

     RDKit          3D

 15 16  0  0  0  0  0  0  0  0999 V2000
  -28.5290   -6.8020  -30.7850 C   0  0  0  0  0  0  0  0  0  0  0  0
  -27.9790   -6.9340  -32.0280 N   0  0  0  0  0  0  0  0  0  0  0  0
  -28.9230   -8.0170  -29.9930 N   0  0  0  0  0  0  0  0  0  0  0  0
  -27.6880   -5.7070  -32.4980 C   0  0  0  0  0  0  0  0  0  0  0  0
  -28.0670   -4.8240  -31.5320 N   0  0  0  0  0  0  0  0  0  0  0  0
  -28.5700   -5.4840  -30.5060 N   0  0  0  0  0  0  0  0  0  0  0  0
  -29.0270   -4.9000  -29.3420 C   0  0  0  0  0  0  0  0  0  0  0  0
  -29.5420   -5.5000  -28.4140 O   0  0  0  0  0  0  0  0  0  0  0  0
  -28.7810   -3.4020  -29.0540 C   0  0  0  0  0  0  0  0  0  0  0  0
  -28.8620   -9.3000  -30.8780 C   0  0  2  0  0  0  0  0  0  0  0  0
  -29.8390  -10.2380  -30.1740 C   0  0  0  0  0  0  0  0  0  0  0  0
  -29.6700  -11.4720  -30.7600 O   0  0  0  0  0  0  0  0  0  0  0  0
  -28.5290  -11.4950  -31.5240 C   0  0  0  0  0  0  0  0  0  0  0  0
  -27.7360  -10.2510  -31.1940 C   0  0  0  0  0  0  0  0  0  0  0  0
  -27.4970   -3.1810  -28.2680 C   0  0  0  0  0  0  0  0  0  0  0  0
  1  2  2  0
  1  6  1  0
  1  3  1  0
  2  4  1  0
 10  3  1  1
  4  5  2  0
  5  6  1  0
  6  7  1  0
  7  9  1  0
  7  8  2  0
 10 14  1  0
 10 11  1  0
 11 12  1  0
 12 13  1  0
 13 14  1  0
  9 15  1  0
M  END
>  <name>  (571) 
Car Nac Nd0 Car Nac Nac Cs2 .=O Cs3 C3r C3r O_a C3r C3r Cs3

>  <indices>  (571) 
[0, 1, 2]

>  <tasks>  (571) 
probe_placing close_aromatic_ring close_aromatic_ring close_aromatic_ring ring_built build_to_Nac build_DB_to_Cs2 build_SB_to_Cs2 build_to_Nd0 close_aliphatic_ring close_aliphatic_ring close_aliphatic_ring close_aliphatic_ring

>  <prot_clashes>  (571) 
10

>  <NBS phar>  (571) 
0.0

>  <NBS_non-phar>  (571) 
0.4887888272603353

>  <NBS>  (571) 
0.4887888272603353

>  <source_stage>  (571) 
scored

>  <source_iter>  (571) 
12

>  <source_parent_mol>  (571) 
1

>  <source_scenario>  (571) 
1 2 3 1 7 1 0 3 2 0 0 1

>  <source_rank_in_scored_call>  (571) 
30

>  <source_current_task>  (571) 
no_task

>  <scenario>  (571) 
1 2 3 1 7 1 0 3 2 0 0

>  <protected_ring_attachments>  (571) 
3,1,0,2|1,0,2;4,5,0,2|5,0,2;11,10,9,2|10,9,2;12,13,9,2|13,9,2

>  <current_task>  (571) 
no_task

>  <rotatable_bond_torsions>  (571) 
1,0,2,9;0,2,9,10;0,5,6,8

$$$$

     RDKit          3D

 15 16  0  0  0  0  0  0  0  0999 V2000
  -28.5730   -6.6120  -30.5580 C   0  0  0  0  0  0  0  0  0  0  0  0
  -28.0370   -6.9440  -31.7690 N   0  0  0  0  0  0  0  0  0  0  0  0
  -28.9800   -7.6830  -29.5860 N   0  0  0  0  0  0  0  0  0  0  0  0
  -27.7290   -5.8100  -32.4250 C   0  0  0  0  0  0  0  0  0  0  0  0
  -28.0850   -4.7810  -31.6040 N   0  0  0  0  0  0  0  0  0  0  0  0
  -28.5900   -5.2660  -30.4850 N   0  0  0  0  0  0  0  0  0  0  0  0
  -29.0250   -4.5020  -29.4230 C   0  0  0  0  0  0  0  0  0  0  0  0
  -29.5420   -4.9430  -28.4100 O   0  0  0  0  0  0  0  0  0  0  0  0
  -28.7520   -2.9820  -29.3710 C   0  0  0  0  0  0  0  0  0  0  0  0
  -28.9490   -9.0880  -30.2630 C   0  0  2  0  0  0  0  0  0  0  0  0
  -29.9350   -9.8890  -29.4160 C   0  0  0  0  0  0  0  0  0  0  0  0
  -29.7920  -11.2010  -29.8060 O   0  0  0  0  0  0  0  0  0  0  0  0
  -28.6600  -11.3620  -30.5650 C   0  0  0  0  0  0  0  0  0  0  0  0
  -27.8420  -10.0970  -30.4350 C   0  0  0  0  0  0  0  0  0  0  0  0
  -28.8050   -2.5120  -27.9850 C   0  0  0  0  0  0  0  0  0  0  0  0
  1  2  2  0
  1  6  1  0
  1  3  1  0
  2  4  1  0
 10  3  1  1
  4  5  2  0
  5  6  1  0
  6  7  1  0
  7  9  1  0
  7  8  2  0
 10 14  1  0
 10 11  1  0
 11 12  1  0
 12 13  1  0
 13 14  1  0
  9 15  1  0
M  END
>  <name>  (572) 
Car Nac Nd0 Car Nac Nac Cs2 .=O Cs3 C3r C3r O_a C3r C3r Cs3

>  <indices>  (572) 
[0, 1, 2]

>  <tasks>  (572) 
probe_placing close_aromatic_ring close_aromatic_ring close_aromatic_ring ring_built build_to_Nac build_DB_to_Cs2 build_SB_to_Cs2 build_to_Nd0 close_aliphatic_ring close_aliphatic_ring close_aliphatic_ring close_aliphatic_ring

>  <prot_clashes>  (572) 
8

>  <NBS phar>  (572) 
0.12

>  <NBS_non-phar>  (572) 
0.35462411244710285

>  <NBS>  (572) 
0.47462411244710284

>  <source_stage>  (572) 
scored

>  <source_iter>  (572) 
12

>  <source_parent_mol>  (572) 
1

>  <source_scenario>  (572) 
1 2 3 1 7 1 0 3 2 0 0 1

>  <source_rank_in_scored_call>  (572) 
42

>  <source_current_task>  (572) 
no_task

>  <scenario>  (572) 
1 2 3 1 7 1 0 3 2 0 0

>  <protected_ring_attachments>  (572) 
3,1,0,2|1,0,2;4,5,0,2|5,0,2;11,10,9,2|10,9,2;12,13,9,2|13,9,2

>  <current_task>  (572) 
no_task

>  <rotatable_bond_torsions>  (572) 
1,0,2,9;0,2,9,10;0,5,6,8

$$$$

     RDKit          3D

 15 16  0  0  0  0  0  0  0  0999 V2000
  -28.4920   -6.8810  -30.8000 C   0  0  0  0  0  0  0  0  0  0  0  0
  -28.0270   -6.9850  -32.0800 N   0  0  0  0  0  0  0  0  0  0  0  0
  -28.9070   -8.1080  -30.0370 N   0  0  0  0  0  0  0  0  0  0  0  0
  -27.6940   -5.7570  -32.5140 C   0  0  0  0  0  0  0  0  0  0  0  0
  -27.9620   -4.8990  -31.4890 N   0  0  0  0  0  0  0  0  0  0  0  0
  -28.4390   -5.5770  -30.4620 N   0  0  0  0  0  0  0  0  0  0  0  0
  -28.7890   -5.0230  -29.2480 C   0  0  0  0  0  0  0  0  0  0  0  0
  -29.2800   -5.6360  -28.3150 O   0  0  0  0  0  0  0  0  0  0  0  0
  -28.4390   -3.5560  -28.9120 C   0  0  0  0  0  0  0  0  0  0  0  0
  -28.9750   -9.3500  -30.9780 C   0  0  2  0  0  0  0  0  0  0  0  0
  -29.9600  -10.2640  -30.2540 C   0  0  0  0  0  0  0  0  0  0  0  0
  -29.8990  -11.4760  -30.9020 O   0  0  0  0  0  0  0  0  0  0  0  0
  -28.8110  -11.5280  -31.7370 C   0  0  0  0  0  0  0  0  0  0  0  0
  -27.9280  -10.3470  -31.4050 C   0  0  0  0  0  0  0  0  0  0  0  0
  -29.1880   -2.6060  -29.8670 C   0  0  0  0  0  0  0  0  0  0  0  0
  1  2  2  0
  1  6  1  0
  1  3  1  0
  2  4  1  0
 10  3  1  1
  4  5  2  0
  5  6  1  0
  6  7  1  0
  7  9  1  0
  7  8  2  0
 10 14  1  0
 10 11  1  0
 11 12  1  0
 12 13  1  0
 13 14  1  0
  9 15  1  0
M  END
>  <name>  (573) 
Car Nac Nd0 Car Nac Nac Cs2 .=O Cs3 C3r C3r O_a C3r C3r Cs3

>  <indices>  (573) 
[0, 1, 2]

>  <tasks>  (573) 
probe_placing close_aromatic_ring close_aromatic_ring close_aromatic_ring ring_built build_to_Nac build_DB_to_Cs2 build_SB_to_Cs2 build_to_Nd0 close_aliphatic_ring close_aliphatic_ring close_aliphatic_ring close_aliphatic_ring

>  <prot_clashes>  (573) 
10

>  <NBS phar>  (573) 
0.06000000000000001

>  <NBS_non-phar>  (573) 
0.39910459518432617

>  <NBS>  (573) 
0.45910459518432617

>  <source_stage>  (573) 
scored

>  <source_iter>  (573) 
12

>  <source_parent_mol>  (573) 
1

>  <source_scenario>  (573) 
1 2 3 1 7 1 0 3 2 0 0 1

>  <source_rank_in_scored_call>  (573) 
51

>  <source_current_task>  (573) 
no_task

>  <scenario>  (573) 
1 2 3 1 7 1 0 3 2 0 0

>  <protected_ring_attachments>  (573) 
3,1,0,2|1,0,2;4,5,0,2|5,0,2;11,10,9,2|10,9,2;12,13,9,2|13,9,2

>  <current_task>  (573) 
no_task

>  <rotatable_bond_torsions>  (573) 
1,0,2,9;0,2,9,10;0,5,6,8

$$$$

     RDKit          3D

 15 16  0  0  0  0  0  0  0  0999 V2000
  -28.5310   -6.8540  -30.8140 C   0  0  0  0  0  0  0  0  0  0  0  0
  -27.9730   -6.9230  -32.0580 N   0  0  0  0  0  0  0  0  0  0  0  0
  -28.9220   -8.1090  -30.0840 N   0  0  0  0  0  0  0  0  0  0  0  0
  -27.6870   -5.6730  -32.4670 C   0  0  0  0  0  0  0  0  0  0  0  0
  -28.0770   -4.8400  -31.4610 N   0  0  0  0  0  0  0  0  0  0  0  0
  -28.5820   -5.5520  -30.4710 N   0  0  0  0  0  0  0  0  0  0  0  0
  -29.0480   -5.0280  -29.2830 C   0  0  0  0  0  0  0  0  0  0  0  0
  -29.5640   -5.6750  -28.3880 O   0  0  0  0  0  0  0  0  0  0  0  0
  -28.8130   -3.5440  -28.9210 C   0  0  0  0  0  0  0  0  0  0  0  0
  -28.8490   -9.3470  -31.0290 C   0  0  2  0  0  0  0  0  0  0  0  0
  -29.8240  -10.3240  -30.3770 C   0  0  0  0  0  0  0  0  0  0  0  0
  -29.6440  -11.5260  -31.0210 O   0  0  0  0  0  0  0  0  0  0  0  0
  -28.5000  -11.5060  -31.7790 C   0  0  0  0  0  0  0  0  0  0  0  0
  -27.7160  -10.2760  -31.3850 C   0  0  0  0  0  0  0  0  0  0  0  0
  -27.4180   -3.2010  -28.4850 C   0  0  0  0  0  0  0  0  0  0  0  0
  1  2  2  0
  1  6  1  0
  1  3  1  0
  2  4  1  0
 10  3  1  1
  4  5  2  0
  5  6  1  0
  6  7  1  0
  7  9  1  0
  7  8  2  0
 10 14  1  0
 10 11  1  0
 11 12  1  0
 12 13  1  0
 13 14  1  0
  9 15  1  0
M  END
>  <name>  (574) 
Car Nac Nd0 Car Nac Nac Cs2 .=O Cs3 C3r C3r O_a C3r C3r Cs3

>  <indices>  (574) 
[0, 1, 2]

>  <tasks>  (574) 
probe_placing close_aromatic_ring close_aromatic_ring close_aromatic_ring ring_built build_to_Nac build_DB_to_Cs2 build_SB_to_Cs2 build_to_Nd0 close_aliphatic_ring close_aliphatic_ring close_aliphatic_ring close_aliphatic_ring

>  <prot_clashes>  (574) 
11

>  <NBS phar>  (574) 
0.0

>  <NBS_non-phar>  (574) 
0.43336251576741536

>  <NBS>  (574) 
0.43336251576741536

>  <source_stage>  (574) 
scored

>  <source_iter>  (574) 
12

>  <source_parent_mol>  (574) 
1

>  <source_scenario>  (574) 
1 2 3 1 7 1 0 3 2 0 0 1

>  <source_rank_in_scored_call>  (574) 
65

>  <source_current_task>  (574) 
no_task

>  <scenario>  (574) 
1 2 3 1 7 1 0 3 2 0 0

>  <protected_ring_attachments>  (574) 
3,1,0,2|1,0,2;4,5,0,2|5,0,2;11,10,9,2|10,9,2;12,13,9,2|13,9,2

>  <current_task>  (574) 
no_task

>  <rotatable_bond_torsions>  (574) 
1,0,2,9;0,2,9,10;0,5,6,8

$$$$

     RDKit          3D

 15 16  0  0  0  0  0  0  0  0999 V2000
  -28.5420   -6.6840  -30.7060 C   0  0  0  0  0  0  0  0  0  0  0  0
  -28.0270   -6.8980  -31.9530 N   0  0  0  0  0  0  0  0  0  0  0  0
  -28.9440   -7.8430  -29.8390 N   0  0  0  0  0  0  0  0  0  0  0  0
  -27.7190   -5.7070  -32.4970 C   0  0  0  0  0  0  0  0  0  0  0  0
  -28.0520   -4.7620  -31.5730 N   0  0  0  0  0  0  0  0  0  0  0  0
  -28.5450   -5.3520  -30.5000 N   0  0  0  0  0  0  0  0  0  0  0  0
  -28.9570   -4.6940  -29.3600 C   0  0  0  0  0  0  0  0  0  0  0  0
  -29.4630   -5.2290  -28.3870 O   0  0  0  0  0  0  0  0  0  0  0  0
  -28.6690   -3.1890  -29.1610 C   0  0  0  0  0  0  0  0  0  0  0  0
  -28.9370   -9.1740  -30.6520 C   0  0  2  0  0  0  0  0  0  0  0  0
  -29.9170  -10.0480  -29.8740 C   0  0  0  0  0  0  0  0  0  0  0  0
  -29.7920  -11.3150  -30.3950 O   0  0  0  0  0  0  0  0  0  0  0  0
  -28.6730  -11.4090  -31.1830 C   0  0  0  0  0  0  0  0  0  0  0  0
  -27.8420  -10.1700  -30.9420 C   0  0  0  0  0  0  0  0  0  0  0  0
  -27.6820   -2.9160  -28.0580 C   0  0  0  0  0  0  0  0  0  0  0  0
  1  2  2  0
  1  6  1  0
  1  3  1  0
  2  4  1  0
 10  3  1  1
  4  5  2  0
  5  6  1  0
  6  7  1  0
  7  9  1  0
  7  8  2  0
 10 14  1  0
 10 11  1  0
 11 12  1  0
 12 13  1  0
 13 14  1  0
  9 15  1  0
M  END
>  <name>  (575) 
Car Nac Nd0 Car Nac Nac Cs2 .=O Cs3 C3r C3r O_a C3r C3r Cs3

>  <indices>  (575) 
[0, 1, 2]

>  <tasks>  (575) 
probe_placing close_aromatic_ring close_aromatic_ring close_aromatic_ring ring_built build_to_Nac build_DB_to_Cs2 build_SB_to_Cs2 build_to_Nd0 close_aliphatic_ring close_aliphatic_ring close_aliphatic_ring close_aliphatic_ring

>  <prot_clashes>  (575) 
9

>  <NBS phar>  (575) 
0.0

>  <NBS_non-phar>  (575) 
0.36066722869873047

>  <NBS>  (575) 
0.36066722869873047

>  <source_stage>  (575) 
scored

>  <source_iter>  (575) 
12

>  <source_parent_mol>  (575) 
1

>  <source_scenario>  (575) 
1 2 3 1 7 1 0 3 2 0 0 1

>  <source_rank_in_scored_call>  (575) 
85

>  <source_current_task>  (575) 
no_task

>  <scenario>  (575) 
1 2 3 1 7 1 0 3 2 0 0

>  <protected_ring_attachments>  (575) 
3,1,0,2|1,0,2;4,5,0,2|5,0,2;11,10,9,2|10,9,2;12,13,9,2|13,9,2

>  <current_task>  (575) 
no_task

>  <rotatable_bond_torsions>  (575) 
1,0,2,9;0,2,9,10;0,5,6,8

$$$$

     RDKit          3D

 15 16  0  0  0  0  0  0  0  0999 V2000
  -28.5670   -6.6110  -30.5030 C   0  0  0  0  0  0  0  0  0  0  0  0
  -28.0130   -6.9560  -31.7030 N   0  0  0  0  0  0  0  0  0  0  0  0
  -28.9800   -7.6700  -29.5200 N   0  0  0  0  0  0  0  0  0  0  0  0
  -27.7050   -5.8300  -32.3700 C   0  0  0  0  0  0  0  0  0  0  0  0
  -28.0770   -4.7920  -31.5690 N   0  0  0  0  0  0  0  0  0  0  0  0
  -28.5930   -5.2640  -30.4500 N   0  0  0  0  0  0  0  0  0  0  0  0
  -29.0470   -4.4870  -29.4040 C   0  0  0  0  0  0  0  0  0  0  0  0
  -29.5730   -4.9170  -28.3910 O   0  0  0  0  0  0  0  0  0  0  0  0
  -28.7840   -2.9650  -29.3710 C   0  0  0  0  0  0  0  0  0  0  0  0
  -28.9310   -9.0840  -30.1760 C   0  0  2  0  0  0  0  0  0  0  0  0
  -29.9220   -9.8800  -29.3300 C   0  0  0  0  0  0  0  0  0  0  0  0
  -29.7660  -11.1960  -29.6990 O   0  0  0  0  0  0  0  0  0  0  0  0
  -28.6230  -11.3610  -30.4410 C   0  0  0  0  0  0  0  0  0  0  0  0
  -27.8160  -10.0890  -30.3200 C   0  0  0  0  0  0  0  0  0  0  0  0
  -28.5060   -2.5200  -28.0050 C   0  0  0  0  0  0  0  0  0  0  0  0
  1  2  2  0
  1  6  1  0
  1  3  1  0
  2  4  1  0
 10  3  1  1
  4  5  2  0
  5  6  1  0
  6  7  1  0
  7  9  1  0
  7  8  2  0
 10 14  1  0
 10 11  1  0
 11 12  1  0
 12 13  1  0
 13 14  1  0
  9 15  1  0
M  END
>  <name>  (576) 
Car Nac Nd0 Car Nac Nac Cs2 .=O Cs3 C3r C3r O_a C3r C3r Cs3

>  <indices>  (576) 
[0, 1, 2]

>  <tasks>  (576) 
probe_placing close_aromatic_ring close_aromatic_ring close_aromatic_ring ring_built build_to_Nac build_DB_to_Cs2 build_SB_to_Cs2 build_to_Nd0 close_aliphatic_ring close_aliphatic_ring close_aliphatic_ring close_aliphatic_ring

>  <prot_clashes>  (576) 
8

>  <NBS phar>  (576) 
0.0

>  <NBS_non-phar>  (576) 
0.3513739267985026

>  <NBS>  (576) 
0.3513739267985026

>  <source_stage>  (576) 
scored

>  <source_iter>  (576) 
12

>  <source_parent_mol>  (576) 
1

>  <source_scenario>  (576) 
1 2 3 1 7 1 0 3 2 0 0 1

>  <source_rank_in_scored_call>  (576) 
86

>  <source_current_task>  (576) 
no_task

>  <scenario>  (576) 
1 2 3 1 7 1 0 3 2 0 0

>  <protected_ring_attachments>  (576) 
3,1,0,2|1,0,2;4,5,0,2|5,0,2;11,10,9,2|10,9,2;12,13,9,2|13,9,2

>  <current_task>  (576) 
no_task

>  <rotatable_bond_torsions>  (576) 
1,0,2,9;0,2,9,10;0,5,6,8

$$$$

     RDKit          3D

 15 16  0  0  0  0  0  0  0  0999 V2000
  -28.5830   -6.3090  -30.6200 C   0  0  0  0  0  0  0  0  0  0  0  0
  -28.0320   -6.5800  -31.8390 N   0  0  0  0  0  0  0  0  0  0  0  0
  -29.0390   -7.4260  -29.7250 N   0  0  0  0  0  0  0  0  0  0  0  0
  -27.6810   -5.4170  -32.4160 C   0  0  0  0  0  0  0  0  0  0  0  0
  -28.0240   -4.4310  -31.5410 N   0  0  0  0  0  0  0  0  0  0  0  0
  -28.5650   -4.9710  -30.4630 N   0  0  0  0  0  0  0  0  0  0  0  0
  -29.0010   -4.2610  -29.3630 C   0  0  0  0  0  0  0  0  0  0  0  0
  -29.5510   -4.7480  -28.3880 O   0  0  0  0  0  0  0  0  0  0  0  0
  -28.6870   -2.7550  -29.2120 C   0  0  0  0  0  0  0  0  0  0  0  0
  -29.2110   -8.8280  -30.4880 C   0  0  2  0  0  0  0  0  0  0  0  0
  -29.5680   -9.5010  -29.1990 C   0  0  0  0  0  0  0  0  0  0  0  0
  -29.9610  -10.7910  -29.3830 O   0  0  0  0  0  0  0  0  0  0  0  0
  -28.9860  -11.5660  -29.9530 C   0  0  0  0  0  0  0  0  0  0  0  0
  -28.5770  -11.0360  -31.3200 C   0  0  0  0  0  0  0  0  0  0  0  0
  -28.0630   -9.6190  -31.1040 C   0  0  0  0  0  0  0  0  0  0  0  0
  1  2  2  0
  1  6  1  0
  1  3  1  0
  2  4  1  0
 10  3  1  1
  4  5  2  0
  5  6  1  0
  6  7  1  0
  7  9  1  0
  7  8  2  0
 10 15  1  0
 10 11  1  0
 11 12  1  0
 12 13  1  0
 13 14  1  0
 14 15  1  0
M  END
>  <name>  (577) 
Car Nac Nd0 Car Nac Nac Cs2 .=O Cs3 C3r C3r O_a C3r C3r C3r

>  <indices>  (577) 
[0, 1, 2]

>  <tasks>  (577) 
probe_placing close_aromatic_ring close_aromatic_ring close_aromatic_ring ring_built build_to_Nac build_DB_to_Cs2 build_SB_to_Cs2 build_to_Nd0 close_aliphatic_ring close_aliphatic_ring close_aliphatic_ring close_aliphatic_ring

>  <prot_clashes>  (577) 
5

>  <NBS phar>  (577) 
0.12

>  <NBS_non-phar>  (577) 
0.38412268956502277

>  <NBS>  (577) 
0.5041226895650228

>  <source_stage>  (577) 
scored

>  <source_iter>  (577) 
12

>  <source_parent_mol>  (577) 
2

>  <source_scenario>  (577) 
1 2 3 1 7 1 0 3 2 1 0 2

>  <source_rank_in_scored_call>  (577) 
2

>  <source_current_task>  (577) 
close_aliphatic_ring

>  <scenario>  (577) 
1 2 3 1 7 1 0 3 2 1 0

>  <protected_ring_attachments>  (577) 
3,1,0,2|1,0,2;4,5,0,2|5,0,2

>  <current_task>  (577) 
no_task

>  <rotatable_bond_torsions>  (577) 
1,0,2,9;0,2,9,10;0,5,6,8;2,9,10,11;9,10,11,12;10,11,12,13

$$$$

     RDKit          3D

 14 15  0  0  0  0  0  0  0  0999 V2000
  -28.5190   -6.4430  -30.5470 C   0  0  0  0  0  0  0  0  0  0  0  0
  -27.9790   -6.8400  -31.7350 N   0  0  0  0  0  0  0  0  0  0  0  0
  -28.9130   -7.4560  -29.5110 N   0  0  0  0  0  0  0  0  0  0  0  0
  -27.6850   -5.7450  -32.4580 C   0  0  0  0  0  0  0  0  0  0  0  0
  -28.0510   -4.6730  -31.7030 N   0  0  0  0  0  0  0  0  0  0  0  0
  -28.5500   -5.0960  -30.5550 N   0  0  0  0  0  0  0  0  0  0  0  0
  -28.9960   -4.2710  -29.5410 C   0  0  0  0  0  0  0  0  0  0  0  0
  -29.5080   -4.6560  -28.5020 O   0  0  0  0  0  0  0  0  0  0  0  0
  -28.7400   -2.7490  -29.5820 C   0  0  0  0  0  0  0  0  0  0  0  0
  -28.6940   -9.0540  -29.9600 C   0  0  2  0  0  0  0  0  0  0  0  0
  -29.8860   -9.6210  -29.2460 C   0  0  0  0  0  0  0  0  0  0  0  0
  -29.4300  -10.5900  -28.3610 O   0  0  0  0  0  0  0  0  0  0  0  0
  -28.0510  -10.6380  -28.3960 C   0  0  0  0  0  0  0  0  0  0  0  0
  -27.5640   -9.3720  -29.0530 C   0  0  0  0  0  0  0  0  0  0  0  0
  1  2  2  0
  1  6  1  0
  1  3  1  0
  2  4  1  0
 10  3  1  1
  4  5  2  0
  5  6  1  0
  6  7  1  0
  7  9  1  0
  7  8  2  0
 10 11  1  0
 10 14  1  0
 11 12  1  0
 12 13  1  0
 13 14  1  0
M  END
>  <name>  (578) 
Car Nac Nd0 Car Nac Nac Cs2 .=O Cs3 C3r C3r O_a C3r C3r

>  <indices>  (578) 
[0, 1, 2]

>  <tasks>  (578) 
probe_placing close_aromatic_ring close_aromatic_ring close_aromatic_ring ring_built build_to_Nac build_DB_to_Cs2 build_SB_to_Cs2 build_to_Nd0 close_aliphatic_ring close_aliphatic_ring close_aliphatic_ring

>  <prot_clashes>  (578) 
5

>  <NBS phar>  (578) 
0.1

>  <NBS_non-phar>  (578) 
0.39870170184544157

>  <NBS>  (578) 
0.4987017018454416

>  <source_stage>  (578) 
scored

>  <source_iter>  (578) 
11

>  <source_parent_mol>  (578) 
3

>  <source_scenario>  (578) 
1 2 3 1 7 1 0 3 2 1 3

>  <source_rank_in_scored_call>  (578) 
2

>  <source_current_task>  (578) 
close_aliphatic_ring

>  <scenario>  (578) 
1 2 3 1 7 1 0 3 2 1

>  <protected_ring_attachments>  (578) 
3,1,0,2|1,0,2;4,5,0,2|5,0,2

>  <current_task>  (578) 
no_task

>  <rotatable_bond_torsions>  (578) 
1,0,2,9;0,2,9,10;0,5,6,8;2,9,10,11;9,10,11,12

$$$$

     RDKit          3D

 14 15  0  0  0  0  0  0  0  0999 V2000
  -28.5460   -6.5290  -31.0020 C   0  0  0  0  0  0  0  0  0  0  0  0
  -27.9860   -6.4730  -32.2450 N   0  0  0  0  0  0  0  0  0  0  0  0
  -28.9720   -7.8450  -30.4180 N   0  0  0  0  0  0  0  0  0  0  0  0
  -27.6660   -5.1940  -32.5110 C   0  0  0  0  0  0  0  0  0  0  0  0
  -28.0340   -4.4680  -31.4180 N   0  0  0  0  0  0  0  0  0  0  0  0
  -28.5610   -5.2730  -30.5150 N   0  0  0  0  0  0  0  0  0  0  0  0
  -29.0180   -4.8720  -29.2750 C   0  0  0  0  0  0  0  0  0  0  0  0
  -29.5540   -5.6020  -28.4570 O   0  0  0  0  0  0  0  0  0  0  0  0
  -28.7420   -3.4460  -28.7480 C   0  0  0  0  0  0  0  0  0  0  0  0
  -28.8160   -9.0800  -31.2690 C   0  0  1  0  0  0  0  0  0  0  0  0
  -27.5020   -9.7140  -30.9030 C   0  0  0  0  0  0  0  0  0  0  0  0
  -27.5370  -11.0090  -31.3390 O   0  0  0  0  0  0  0  0  0  0  0  0
  -28.7820  -11.3660  -31.7610 C   0  0  0  0  0  0  0  0  0  0  0  0
  -29.7050  -10.2690  -31.3070 C   0  0  0  0  0  0  0  0  0  0  0  0
  1  2  2  0
  1  6  1  0
  1  3  1  0
  2  4  1  0
 10  3  1  1
  4  5  2  0
  5  6  1  0
  6  7  1  0
  7  9  1  0
  7  8  2  0
 10 14  1  0
 10 11  1  0
 11 12  1  0
 12 13  1  0
 13 14  1  0
M  END
>  <name>  (579) 
Car Nac Nd0 Car Nac Nac Cs2 .=O Cs3 C3r C3r O_a C3r C3r

>  <indices>  (579) 
[0, 1, 2]

>  <tasks>  (579) 
probe_placing close_aromatic_ring close_aromatic_ring close_aromatic_ring ring_built build_to_Nac build_DB_to_Cs2 build_SB_to_Cs2 build_to_Nd0 close_aliphatic_ring close_aliphatic_ring close_aliphatic_ring

>  <prot_clashes>  (579) 
8

>  <NBS phar>  (579) 
0.2

>  <NBS_non-phar>  (579) 
0.4324781894683838

>  <NBS>  (579) 
0.6324781894683837

>  <source_stage>  (579) 
scored

>  <source_iter>  (579) 
11

>  <source_parent_mol>  (579) 
1

>  <source_scenario>  (579) 
1 2 3 1 7 1 0 3 3 2 1

>  <source_rank_in_scored_call>  (579) 
1

>  <source_current_task>  (579) 
close_aliphatic_ring

>  <scenario>  (579) 
1 2 3 1 7 1 0 3 3 2

>  <protected_ring_attachments>  (579) 
3,1,0,2|1,0,2;4,5,0,2|5,0,2

>  <current_task>  (579) 
no_task

>  <rotatable_bond_torsions>  (579) 
1,0,2,9;0,2,9,10;0,5,6,8;2,9,10,11;9,10,11,12

$$$$

     RDKit          3D

 15 16  0  0  0  0  0  0  0  0999 V2000
  -28.5720   -6.4950  -31.0420 C   0  0  0  0  0  0  0  0  0  0  0  0
  -28.0340   -6.5830  -32.2930 N   0  0  0  0  0  0  0  0  0  0  0  0
  -29.0190   -7.7310  -30.3180 N   0  0  0  0  0  0  0  0  0  0  0  0
  -27.6880   -5.3470  -32.6960 C   0  0  0  0  0  0  0  0  0  0  0  0
  -28.0180   -4.5020  -31.6790 N   0  0  0  0  0  0  0  0  0  0  0  0
  -28.5480   -5.1950  -30.6890 N   0  0  0  0  0  0  0  0  0  0  0  0
  -28.9720   -4.6560  -29.4900 C   0  0  0  0  0  0  0  0  0  0  0  0
  -29.5110   -5.2830  -28.5920 O   0  0  0  0  0  0  0  0  0  0  0  0
  -28.6520   -3.1900  -29.1190 C   0  0  0  0  0  0  0  0  0  0  0  0
  -28.9090   -9.0520  -31.0380 C   0  0  1  0  0  0  0  0  0  0  0  0
  -27.6040   -9.6780  -30.6280 C   0  0  0  0  0  0  0  0  0  0  0  0
  -27.6780  -11.0100  -30.9260 O   0  0  0  0  0  0  0  0  0  0  0  0
  -28.9390  -11.3770  -31.2890 C   0  0  0  0  0  0  0  0  0  0  0  0
  -29.8270  -10.2150  -30.9370 C   0  0  0  0  0  0  0  0  0  0  0  0
  -27.6810   -3.0680  -27.9750 C   0  0  0  0  0  0  0  0  0  0  0  0
  1  2  2  0
  1  6  1  0
  1  3  1  0
  2  4  1  0
 10  3  1  1
  4  5  2  0
  5  6  1  0
  6  7  1  0
  7  9  1  0
  7  8  2  0
 10 14  1  0
 10 11  1  0
 11 12  1  0
 12 13  1  0
 13 14  1  0
  9 15  1  0
M  END
>  <name>  (580) 
Car Nac Nd0 Car Nac Nac Cs2 .=O Cs3 C3r C3r O_a C3r C3r Cs3

>  <indices>  (580) 
[0, 1, 2]

>  <tasks>  (580) 
probe_placing close_aromatic_ring close_aromatic_ring close_aromatic_ring ring_built build_to_Nac build_DB_to_Cs2 build_SB_to_Cs2 build_to_Nd0 close_aliphatic_ring close_aliphatic_ring close_aliphatic_ring close_aliphatic_ring

>  <prot_clashes>  (580) 
11

>  <NBS phar>  (580) 
0.22000000000000003

>  <NBS_non-phar>  (580) 
0.5046106974283854

>  <NBS>  (580) 
0.7246106974283855

>  <source_stage>  (580) 
scored

>  <source_iter>  (580) 
12

>  <source_parent_mol>  (580) 
1

>  <source_scenario>  (580) 
1 2 3 1 7 1 0 3 3 2 1 1

>  <source_rank_in_scored_call>  (580) 
11

>  <source_current_task>  (580) 
no_task

>  <scenario>  (580) 
1 2 3 1 7 1 0 3 3 2 1

>  <protected_ring_attachments>  (580) 
3,1,0,2|1,0,2;4,5,0,2|5,0,2;11,10,9,2|10,9,2;12,13,9,2|13,9,2

>  <current_task>  (580) 
no_task

>  <rotatable_bond_torsions>  (580) 
1,0,2,9;0,2,9,10;0,5,6,8

>  <reason_to_skip>  (580) 
global_duplicate

>  <global_duplicate_rmsd>  (580) 
0.0

>  <global_duplicate_old_source_iter>  (580) 
11

>  <global_duplicate_old_source_parent_mol>  (580) 
1

>  <global_duplicate_old_index>  (580) 
NA

>  <global_duplicate_rotatable_bond_torsions>  (580) 
1,0,2,9;0,2,9,10;0,5,6,8

>  <global_duplicate_old_rotatable_bond_torsions>  (580) 
1,0,2,9;0,2,9,10;0,5,6,8

>  <global_duplicate_last_growth_torsion>  (580) 
(10, 11, 12, 13)

>  <global_duplicate_protected_ring_attachments>  (580) 
3,1,0,2|1,0,2;4,5,0,2|5,0,2;11,10,9,2|10,9,2;12,13,9,2|13,9,2

>  <global_duplicate_old_last_growth_torsion>  (580) 
(10, 11, 12, 13)

>  <global_duplicate_old_protected_ring_attachments>  (580) 
3,1,0,2|1,0,2;4,5,0,2|5,0,2;11,10,9,2|10,9,2;12,13,9,2|13,9,2

$$$$

     RDKit          3D

 15 16  0  0  0  0  0  0  0  0999 V2000
  -28.5470   -6.4410  -30.9490 C   0  0  0  0  0  0  0  0  0  0  0  0
  -27.9850   -6.4360  -32.1930 N   0  0  0  0  0  0  0  0  0  0  0  0
  -28.9700   -7.7320  -30.3100 N   0  0  0  0  0  0  0  0  0  0  0  0
  -27.6690   -5.1690  -32.5130 C   0  0  0  0  0  0  0  0  0  0  0  0
  -28.0410   -4.3980  -31.4520 N   0  0  0  0  0  0  0  0  0  0  0  0
  -28.5670   -5.1650  -30.5170 N   0  0  0  0  0  0  0  0  0  0  0  0
  -29.0270   -4.7130  -29.2960 C   0  0  0  0  0  0  0  0  0  0  0  0
  -29.5620   -5.4090  -28.4480 O   0  0  0  0  0  0  0  0  0  0  0  0
  -28.7560   -3.2650  -28.8300 C   0  0  0  0  0  0  0  0  0  0  0  0
  -28.8090   -9.0020  -31.1070 C   0  0  1  0  0  0  0  0  0  0  0  0
  -27.4940   -9.6150  -30.7130 C   0  0  0  0  0  0  0  0  0  0  0  0
  -27.5250  -10.9280  -31.0930 O   0  0  0  0  0  0  0  0  0  0  0  0
  -28.7680  -11.3060  -31.5010 C   0  0  0  0  0  0  0  0  0  0  0  0
  -29.6950  -10.1940  -31.0960 C   0  0  0  0  0  0  0  0  0  0  0  0
  -27.4780   -3.1660  -28.0100 C   0  0  0  0  0  0  0  0  0  0  0  0
  1  2  2  0
  1  6  1  0
  1  3  1  0
  2  4  1  0
 10  3  1  1
  4  5  2  0
  5  6  1  0
  6  7  1  0
  7  9  1  0
  7  8  2  0
 10 14  1  0
 10 11  1  0
 11 12  1  0
 12 13  1  0
 13 14  1  0
  9 15  1  0
M  END
>  <name>  (581) 
Car Nac Nd0 Car Nac Nac Cs2 .=O Cs3 C3r C3r O_a C3r C3r Cs3

>  <indices>  (581) 
[0, 1, 2]

>  <tasks>  (581) 
probe_placing close_aromatic_ring close_aromatic_ring close_aromatic_ring ring_built build_to_Nac build_DB_to_Cs2 build_SB_to_Cs2 build_to_Nd0 close_aliphatic_ring close_aliphatic_ring close_aliphatic_ring close_aliphatic_ring

>  <prot_clashes>  (581) 
9

>  <NBS phar>  (581) 
0.22000000000000003

>  <NBS_non-phar>  (581) 
0.5011189778645834

>  <NBS>  (581) 
0.7211189778645835

>  <source_stage>  (581) 
scored

>  <source_iter>  (581) 
12

>  <source_parent_mol>  (581) 
1

>  <source_scenario>  (581) 
1 2 3 1 7 1 0 3 3 2 1 1

>  <source_rank_in_scored_call>  (581) 
12

>  <source_current_task>  (581) 
no_task

>  <scenario>  (581) 
1 2 3 1 7 1 0 3 3 2 1

>  <protected_ring_attachments>  (581) 
3,1,0,2|1,0,2;4,5,0,2|5,0,2;11,10,9,2|10,9,2;12,13,9,2|13,9,2

>  <current_task>  (581) 
no_task

>  <rotatable_bond_torsions>  (581) 
1,0,2,9;0,2,9,10;0,5,6,8

>  <reason_to_skip>  (581) 
global_duplicate

>  <global_duplicate_rmsd>  (581) 
0.0

>  <global_duplicate_old_source_iter>  (581) 
11

>  <global_duplicate_old_source_parent_mol>  (581) 
1

>  <global_duplicate_old_index>  (581) 
NA

>  <global_duplicate_rotatable_bond_torsions>  (581) 
1,0,2,9;0,2,9,10;0,5,6,8

>  <global_duplicate_old_rotatable_bond_torsions>  (581) 
1,0,2,9;0,2,9,10;0,5,6,8

>  <global_duplicate_last_growth_torsion>  (581) 
(10, 11, 12, 13)

>  <global_duplicate_protected_ring_attachments>  (581) 
3,1,0,2|1,0,2;4,5,0,2|5,0,2;11,10,9,2|10,9,2;12,13,9,2|13,9,2

>  <global_duplicate_old_last_growth_torsion>  (581) 
(10, 11, 12, 13)

>  <global_duplicate_old_protected_ring_attachments>  (581) 
3,1,0,2|1,0,2;4,5,0,2|5,0,2;11,10,9,2|10,9,2;12,13,9,2|13,9,2

$$$$

     RDKit          3D

 15 16  0  0  0  0  0  0  0  0999 V2000
  -28.5550   -6.5250  -31.0030 C   0  0  0  0  0  0  0  0  0  0  0  0
  -27.9970   -6.4660  -32.2470 N   0  0  0  0  0  0  0  0  0  0  0  0
  -28.9740   -7.8430  -30.4190 N   0  0  0  0  0  0  0  0  0  0  0  0
  -27.6830   -5.1850  -32.5130 C   0  0  0  0  0  0  0  0  0  0  0  0
  -28.0530   -4.4610  -31.4190 N   0  0  0  0  0  0  0  0  0  0  0  0
  -28.5750   -5.2690  -30.5150 N   0  0  0  0  0  0  0  0  0  0  0  0
  -29.0320   -4.8710  -29.2750 C   0  0  0  0  0  0  0  0  0  0  0  0
  -29.5630   -5.6040  -28.4560 O   0  0  0  0  0  0  0  0  0  0  0  0
  -28.7620   -3.4440  -28.7470 C   0  0  0  0  0  0  0  0  0  0  0  0
  -28.8130   -9.0770  -31.2710 C   0  0  1  0  0  0  0  0  0  0  0  0
  -27.4960   -9.7050  -30.9070 C   0  0  0  0  0  0  0  0  0  0  0  0
  -27.5250  -11.0000  -31.3440 O   0  0  0  0  0  0  0  0  0  0  0  0
  -28.7690  -11.3620  -31.7640 C   0  0  0  0  0  0  0  0  0  0  0  0
  -29.6970  -10.2700  -31.3080 C   0  0  0  0  0  0  0  0  0  0  0  0
  -27.3600   -3.1870  -28.2740 C   0  0  0  0  0  0  0  0  0  0  0  0
  1  2  2  0
  1  6  1  0
  1  3  1  0
  2  4  1  0
 10  3  1  1
  4  5  2  0
  5  6  1  0
  6  7  1  0
  7  9  1  0
  7  8  2  0
 10 14  1  0
 10 11  1  0
 11 12  1  0
 12 13  1  0
 13 14  1  0
  9 15  1  0
M  END
>  <name>  (582) 
Car Nac Nd0 Car Nac Nac Cs2 .=O Cs3 C3r C3r O_a C3r C3r Cs3

>  <indices>  (582) 
[0, 1, 2]

>  <tasks>  (582) 
probe_placing close_aromatic_ring close_aromatic_ring close_aromatic_ring ring_built build_to_Nac build_DB_to_Cs2 build_SB_to_Cs2 build_to_Nd0 close_aliphatic_ring close_aliphatic_ring close_aliphatic_ring close_aliphatic_ring

>  <prot_clashes>  (582) 
8

>  <NBS phar>  (582) 
0.2

>  <NBS_non-phar>  (582) 
0.4662592569986979

>  <NBS>  (582) 
0.6662592569986979

>  <source_stage>  (582) 
scored

>  <source_iter>  (582) 
12

>  <source_parent_mol>  (582) 
1

>  <source_scenario>  (582) 
1 2 3 1 7 1 0 3 3 2 1 1

>  <source_rank_in_scored_call>  (582) 
44

>  <source_current_task>  (582) 
no_task

>  <scenario>  (582) 
1 2 3 1 7 1 0 3 3 2 1

>  <protected_ring_attachments>  (582) 
3,1,0,2|1,0,2;4,5,0,2|5,0,2;11,10,9,2|10,9,2;12,13,9,2|13,9,2

>  <current_task>  (582) 
no_task

>  <rotatable_bond_torsions>  (582) 
1,0,2,9;0,2,9,10;0,5,6,8

>  <reason_to_skip>  (582) 
global_duplicate

>  <global_duplicate_rmsd>  (582) 
0.0

>  <global_duplicate_old_source_iter>  (582) 
11

>  <global_duplicate_old_source_parent_mol>  (582) 
1

>  <global_duplicate_old_index>  (582) 
NA

>  <global_duplicate_rotatable_bond_torsions>  (582) 
1,0,2,9;0,2,9,10;0,5,6,8

>  <global_duplicate_old_rotatable_bond_torsions>  (582) 
1,0,2,9;0,2,9,10;0,5,6,8

>  <global_duplicate_last_growth_torsion>  (582) 
(10, 11, 12, 13)

>  <global_duplicate_protected_ring_attachments>  (582) 
3,1,0,2|1,0,2;4,5,0,2|5,0,2;11,10,9,2|10,9,2;12,13,9,2|13,9,2

>  <global_duplicate_old_last_growth_torsion>  (582) 
(10, 11, 12, 13)

>  <global_duplicate_old_protected_ring_attachments>  (582) 
3,1,0,2|1,0,2;4,5,0,2|5,0,2;11,10,9,2|10,9,2;12,13,9,2|13,9,2

$$$$

     RDKit          3D

 15 16  0  0  0  0  0  0  0  0999 V2000
  -28.4320   -6.6450  -31.0290 C   0  0  0  0  0  0  0  0  0  0  0  0
  -28.0490   -6.6460  -32.3380 N   0  0  0  0  0  0  0  0  0  0  0  0
  -28.8500   -7.9210  -30.3570 N   0  0  0  0  0  0  0  0  0  0  0  0
  -27.6940   -5.3950  -32.6790 C   0  0  0  0  0  0  0  0  0  0  0  0
  -27.8620   -4.6280  -31.5650 N   0  0  0  0  0  0  0  0  0  0  0  0
  -28.3040   -5.3820  -30.5770 N   0  0  0  0  0  0  0  0  0  0  0  0
  -28.5590   -4.9310  -29.2970 C   0  0  0  0  0  0  0  0  0  0  0  0
  -29.0180   -5.6120  -28.3940 O   0  0  0  0  0  0  0  0  0  0  0  0
  -28.1280   -3.5160  -28.8510 C   0  0  0  0  0  0  0  0  0  0  0  0
  -28.8880   -9.1780  -31.1890 C   0  0  1  0  0  0  0  0  0  0  0  0
  -27.5760   -9.8870  -30.9910 C   0  0  0  0  0  0  0  0  0  0  0  0
  -27.7480  -11.1850  -31.3840 O   0  0  0  0  0  0  0  0  0  0  0  0
  -29.0590  -11.4700  -31.6200 C   0  0  0  0  0  0  0  0  0  0  0  0
  -29.8430  -10.3100  -31.0720 C   0  0  0  0  0  0  0  0  0  0  0  0
  -29.1800   -2.8550  -28.0190 C   0  0  0  0  0  0  0  0  0  0  0  0
  1  2  2  0
  1  6  1  0
  1  3  1  0
  2  4  1  0
 10  3  1  1
  4  5  2  0
  5  6  1  0
  6  7  1  0
  7  9  1  0
  7  8  2  0
 10 14  1  0
 10 11  1  0
 11 12  1  0
 12 13  1  0
 13 14  1  0
  9 15  1  0
M  END
>  <name>  (583) 
Car Nac Nd0 Car Nac Nac Cs2 .=O Cs3 C3r C3r O_a C3r C3r Cs3

>  <indices>  (583) 
[0, 1, 2]

>  <tasks>  (583) 
probe_placing close_aromatic_ring close_aromatic_ring close_aromatic_ring ring_built build_to_Nac build_DB_to_Cs2 build_SB_to_Cs2 build_to_Nd0 close_aliphatic_ring close_aliphatic_ring close_aliphatic_ring close_aliphatic_ring

>  <prot_clashes>  (583) 
10

>  <NBS phar>  (583) 
0.22000000000000003

>  <NBS_non-phar>  (583) 
0.42810742060343426

>  <NBS>  (583) 
0.6481074206034343

>  <source_stage>  (583) 
scored

>  <source_iter>  (583) 
12

>  <source_parent_mol>  (583) 
1

>  <source_scenario>  (583) 
1 2 3 1 7 1 0 3 3 2 1 1

>  <source_rank_in_scored_call>  (583) 
57

>  <source_current_task>  (583) 
no_task

>  <scenario>  (583) 
1 2 3 1 7 1 0 3 3 2 1

>  <protected_ring_attachments>  (583) 
3,1,0,2|1,0,2;4,5,0,2|5,0,2;11,10,9,2|10,9,2;12,13,9,2|13,9,2

>  <current_task>  (583) 
no_task

>  <rotatable_bond_torsions>  (583) 
1,0,2,9;0,2,9,10;0,5,6,8

>  <reason_to_skip>  (583) 
global_duplicate

>  <global_duplicate_rmsd>  (583) 
0.0

>  <global_duplicate_old_source_iter>  (583) 
11

>  <global_duplicate_old_source_parent_mol>  (583) 
1

>  <global_duplicate_old_index>  (583) 
NA

>  <global_duplicate_rotatable_bond_torsions>  (583) 
1,0,2,9;0,2,9,10;0,5,6,8

>  <global_duplicate_old_rotatable_bond_torsions>  (583) 
1,0,2,9;0,2,9,10;0,5,6,8

>  <global_duplicate_last_growth_torsion>  (583) 
(10, 11, 12, 13)

>  <global_duplicate_protected_ring_attachments>  (583) 
3,1,0,2|1,0,2;4,5,0,2|5,0,2;11,10,9,2|10,9,2;12,13,9,2|13,9,2

>  <global_duplicate_old_last_growth_torsion>  (583) 
(10, 11, 12, 13)

>  <global_duplicate_old_protected_ring_attachments>  (583) 
3,1,0,2|1,0,2;4,5,0,2|5,0,2;11,10,9,2|10,9,2;12,13,9,2|13,9,2

$$$$

     RDKit          3D

 15 16  0  0  0  0  0  0  0  0999 V2000
  -28.4050   -6.6690  -31.0010 C   0  0  0  0  0  0  0  0  0  0  0  0
  -28.0090   -6.6530  -32.3070 N   0  0  0  0  0  0  0  0  0  0  0  0
  -28.8430   -7.9520  -30.3550 N   0  0  0  0  0  0  0  0  0  0  0  0
  -27.6380   -5.3990  -32.6240 C   0  0  0  0  0  0  0  0  0  0  0  0
  -27.8100   -4.6490  -31.4990 N   0  0  0  0  0  0  0  0  0  0  0  0
  -28.2700   -5.4150  -30.5280 N   0  0  0  0  0  0  0  0  0  0  0  0
  -28.5330   -4.9830  -29.2430 C   0  0  0  0  0  0  0  0  0  0  0  0
  -29.0080   -5.6740  -28.3560 O   0  0  0  0  0  0  0  0  0  0  0  0
  -28.0920   -3.5800  -28.7690 C   0  0  0  0  0  0  0  0  0  0  0  0
  -28.8850   -9.1950  -31.2080 C   0  0  1  0  0  0  0  0  0  0  0  0
  -27.5820   -9.9200  -31.0090 C   0  0  0  0  0  0  0  0  0  0  0  0
  -27.7630  -11.2090  -31.4250 O   0  0  0  0  0  0  0  0  0  0  0  0
  -29.0740  -11.4780  -31.6790 C   0  0  0  0  0  0  0  0  0  0  0  0
  -29.8520  -10.3190  -31.1190 C   0  0  0  0  0  0  0  0  0  0  0  0
  -29.1890   -2.7950  -28.0990 C   0  0  0  0  0  0  0  0  0  0  0  0
  1  2  2  0
  1  6  1  0
  1  3  1  0
  2  4  1  0
 10  3  1  1
  4  5  2  0
  5  6  1  0
  6  7  1  0
  7  9  1  0
  7  8  2  0
 10 14  1  0
 10 11  1  0
 11 12  1  0
 12 13  1  0
 13 14  1  0
  9 15  1  0
M  END
>  <name>  (584) 
Car Nac Nd0 Car Nac Nac Cs2 .=O Cs3 C3r C3r O_a C3r C3r Cs3

>  <indices>  (584) 
[0, 1, 2]

>  <tasks>  (584) 
probe_placing close_aromatic_ring close_aromatic_ring close_aromatic_ring ring_built build_to_Nac build_DB_to_Cs2 build_SB_to_Cs2 build_to_Nd0 close_aliphatic_ring close_aliphatic_ring close_aliphatic_ring close_aliphatic_ring

>  <prot_clashes>  (584) 
8

>  <NBS phar>  (584) 
0.22000000000000003

>  <NBS_non-phar>  (584) 
0.4277896245320638

>  <NBS>  (584) 
0.6477896245320638

>  <source_stage>  (584) 
scored

>  <source_iter>  (584) 
12

>  <source_parent_mol>  (584) 
1

>  <source_scenario>  (584) 
1 2 3 1 7 1 0 3 3 2 1 1

>  <source_rank_in_scored_call>  (584) 
58

>  <source_current_task>  (584) 
no_task

>  <scenario>  (584) 
1 2 3 1 7 1 0 3 3 2 1

>  <protected_ring_attachments>  (584) 
3,1,0,2|1,0,2;4,5,0,2|5,0,2;11,10,9,2|10,9,2;12,13,9,2|13,9,2

>  <current_task>  (584) 
no_task

>  <rotatable_bond_torsions>  (584) 
1,0,2,9;0,2,9,10;0,5,6,8

>  <reason_to_skip>  (584) 
global_duplicate

>  <global_duplicate_rmsd>  (584) 
0.0

>  <global_duplicate_old_source_iter>  (584) 
11

>  <global_duplicate_old_source_parent_mol>  (584) 
1

>  <global_duplicate_old_index>  (584) 
NA

>  <global_duplicate_rotatable_bond_torsions>  (584) 
1,0,2,9;0,2,9,10;0,5,6,8

>  <global_duplicate_old_rotatable_bond_torsions>  (584) 
1,0,2,9;0,2,9,10;0,5,6,8

>  <global_duplicate_last_growth_torsion>  (584) 
(10, 11, 12, 13)

>  <global_duplicate_protected_ring_attachments>  (584) 
3,1,0,2|1,0,2;4,5,0,2|5,0,2;11,10,9,2|10,9,2;12,13,9,2|13,9,2

>  <global_duplicate_old_last_growth_torsion>  (584) 
(10, 11, 12, 13)

>  <global_duplicate_old_protected_ring_attachments>  (584) 
3,1,0,2|1,0,2;4,5,0,2|5,0,2;11,10,9,2|10,9,2;12,13,9,2|13,9,2

$$$$

     RDKit          3D

 15 16  0  0  0  0  0  0  0  0999 V2000
  -28.4480   -6.5050  -30.9910 C   0  0  0  0  0  0  0  0  0  0  0  0
  -27.9070   -6.4640  -32.2430 N   0  0  0  0  0  0  0  0  0  0  0  0
  -28.9110   -7.8070  -30.4050 N   0  0  0  0  0  0  0  0  0  0  0  0
  -27.5470   -5.1960  -32.5110 C   0  0  0  0  0  0  0  0  0  0  0  0
  -27.8710   -4.4620  -31.4090 N   0  0  0  0  0  0  0  0  0  0  0  0
  -28.4110   -5.2510  -30.5000 N   0  0  0  0  0  0  0  0  0  0  0  0
  -28.8330   -4.8390  -29.2510 C   0  0  0  0  0  0  0  0  0  0  0  0
  -29.3800   -5.5530  -28.4270 O   0  0  0  0  0  0  0  0  0  0  0  0
  -28.4980   -3.4260  -28.7250 C   0  0  0  0  0  0  0  0  0  0  0  0
  -28.8120   -9.0440  -31.2620 C   0  0  1  0  0  0  0  0  0  0  0  0
  -27.5160   -9.7250  -30.9200 C   0  0  0  0  0  0  0  0  0  0  0  0
  -27.6040  -11.0160  -31.3600 O   0  0  0  0  0  0  0  0  0  0  0  0
  -28.8670  -11.3280  -31.7620 C   0  0  0  0  0  0  0  0  0  0  0  0
  -29.7430  -10.2010  -31.2890 C   0  0  0  0  0  0  0  0  0  0  0  0
  -29.1850   -2.3620  -29.6010 C   0  0  0  0  0  0  0  0  0  0  0  0
  1  2  2  0
  1  6  1  0
  1  3  1  0
  2  4  1  0
 10  3  1  1
  4  5  2  0
  5  6  1  0
  6  7  1  0
  7  9  1  0
  7  8  2  0
 10 14  1  0
 10 11  1  0
 11 12  1  0
 12 13  1  0
 13 14  1  0
  9 15  1  0
M  END
>  <name>  (585) 
Car Nac Nd0 Car Nac Nac Cs2 .=O Cs3 C3r C3r O_a C3r C3r Cs3

>  <indices>  (585) 
[0, 1, 2]

>  <tasks>  (585) 
probe_placing close_aromatic_ring close_aromatic_ring close_aromatic_ring ring_built build_to_Nac build_DB_to_Cs2 build_SB_to_Cs2 build_to_Nd0 close_aliphatic_ring close_aliphatic_ring close_aliphatic_ring close_aliphatic_ring

>  <prot_clashes>  (585) 
9

>  <NBS phar>  (585) 
0.2

>  <NBS_non-phar>  (585) 
0.42660818099975584

>  <NBS>  (585) 
0.6266081809997559

>  <source_stage>  (585) 
scored

>  <source_iter>  (585) 
12

>  <source_parent_mol>  (585) 
1

>  <source_scenario>  (585) 
1 2 3 1 7 1 0 3 3 2 1 1

>  <source_rank_in_scored_call>  (585) 
74

>  <source_current_task>  (585) 
no_task

>  <scenario>  (585) 
1 2 3 1 7 1 0 3 3 2 1

>  <protected_ring_attachments>  (585) 
3,1,0,2|1,0,2;4,5,0,2|5,0,2;11,10,9,2|10,9,2;12,13,9,2|13,9,2

>  <current_task>  (585) 
no_task

>  <rotatable_bond_torsions>  (585) 
1,0,2,9;0,2,9,10;0,5,6,8

>  <reason_to_skip>  (585) 
global_duplicate

>  <global_duplicate_rmsd>  (585) 
0.0

>  <global_duplicate_old_source_iter>  (585) 
11

>  <global_duplicate_old_source_parent_mol>  (585) 
1

>  <global_duplicate_old_index>  (585) 
NA

>  <global_duplicate_rotatable_bond_torsions>  (585) 
1,0,2,9;0,2,9,10;0,5,6,8

>  <global_duplicate_old_rotatable_bond_torsions>  (585) 
1,0,2,9;0,2,9,10;0,5,6,8

>  <global_duplicate_last_growth_torsion>  (585) 
(10, 11, 12, 13)

>  <global_duplicate_protected_ring_attachments>  (585) 
3,1,0,2|1,0,2;4,5,0,2|5,0,2;11,10,9,2|10,9,2;12,13,9,2|13,9,2

>  <global_duplicate_old_last_growth_torsion>  (585) 
(10, 11, 12, 13)

>  <global_duplicate_old_protected_ring_attachments>  (585) 
3,1,0,2|1,0,2;4,5,0,2|5,0,2;11,10,9,2|10,9,2;12,13,9,2|13,9,2

$$$$

     RDKit          3D

 15 16  0  0  0  0  0  0  0  0999 V2000
  -28.4370   -6.5100  -30.9800 C   0  0  0  0  0  0  0  0  0  0  0  0
  -27.9180   -6.4650  -32.2400 N   0  0  0  0  0  0  0  0  0  0  0  0
  -28.8930   -7.8130  -30.3900 N   0  0  0  0  0  0  0  0  0  0  0  0
  -27.5590   -5.1970  -32.5090 C   0  0  0  0  0  0  0  0  0  0  0  0
  -27.8620   -4.4660  -31.3990 N   0  0  0  0  0  0  0  0  0  0  0  0
  -28.3890   -5.2580  -30.4840 N   0  0  0  0  0  0  0  0  0  0  0  0
  -28.7890   -4.8500  -29.2270 C   0  0  0  0  0  0  0  0  0  0  0  0
  -29.3240   -5.5650  -28.3960 O   0  0  0  0  0  0  0  0  0  0  0  0
  -28.4410   -3.4390  -28.7010 C   0  0  0  0  0  0  0  0  0  0  0  0
  -28.8120   -9.0470  -31.2540 C   0  0  1  0  0  0  0  0  0  0  0  0
  -27.5120   -9.7320  -30.9360 C   0  0  0  0  0  0  0  0  0  0  0  0
  -27.6100  -11.0220  -31.3790 O   0  0  0  0  0  0  0  0  0  0  0  0
  -28.8810  -11.3290  -31.7610 C   0  0  0  0  0  0  0  0  0  0  0  0
  -29.7460  -10.2010  -31.2700 C   0  0  0  0  0  0  0  0  0  0  0  0
  -29.1890   -2.3990  -29.5280 C   0  0  0  0  0  0  0  0  0  0  0  0
  1  2  2  0
  1  6  1  0
  1  3  1  0
  2  4  1  0
 10  3  1  1
  4  5  2  0
  5  6  1  0
  6  7  1  0
  7  9  1  0
  7  8  2  0
 10 14  1  0
 10 11  1  0
 11 12  1  0
 12 13  1  0
 13 14  1  0
  9 15  1  0
M  END
>  <name>  (586) 
Car Nac Nd0 Car Nac Nac Cs2 .=O Cs3 C3r C3r O_a C3r C3r Cs3

>  <indices>  (586) 
[0, 1, 2]

>  <tasks>  (586) 
probe_placing close_aromatic_ring close_aromatic_ring close_aromatic_ring ring_built build_to_Nac build_DB_to_Cs2 build_SB_to_Cs2 build_to_Nd0 close_aliphatic_ring close_aliphatic_ring close_aliphatic_ring close_aliphatic_ring

>  <prot_clashes>  (586) 
7

>  <NBS phar>  (586) 
0.2

>  <NBS_non-phar>  (586) 
0.4263867060343424

>  <NBS>  (586) 
0.6263867060343424

>  <source_stage>  (586) 
scored

>  <source_iter>  (586) 
12

>  <source_parent_mol>  (586) 
1

>  <source_scenario>  (586) 
1 2 3 1 7 1 0 3 3 2 1 1

>  <source_rank_in_scored_call>  (586) 
76

>  <source_current_task>  (586) 
no_task

>  <scenario>  (586) 
1 2 3 1 7 1 0 3 3 2 1

>  <protected_ring_attachments>  (586) 
3,1,0,2|1,0,2;4,5,0,2|5,0,2;11,10,9,2|10,9,2;12,13,9,2|13,9,2

>  <current_task>  (586) 
no_task

>  <rotatable_bond_torsions>  (586) 
1,0,2,9;0,2,9,10;0,5,6,8

>  <reason_to_skip>  (586) 
global_duplicate

>  <global_duplicate_rmsd>  (586) 
0.0

>  <global_duplicate_old_source_iter>  (586) 
11

>  <global_duplicate_old_source_parent_mol>  (586) 
1

>  <global_duplicate_old_index>  (586) 
NA

>  <global_duplicate_rotatable_bond_torsions>  (586) 
1,0,2,9;0,2,9,10;0,5,6,8

>  <global_duplicate_old_rotatable_bond_torsions>  (586) 
1,0,2,9;0,2,9,10;0,5,6,8

>  <global_duplicate_last_growth_torsion>  (586) 
(10, 11, 12, 13)

>  <global_duplicate_protected_ring_attachments>  (586) 
3,1,0,2|1,0,2;4,5,0,2|5,0,2;11,10,9,2|10,9,2;12,13,9,2|13,9,2

>  <global_duplicate_old_last_growth_torsion>  (586) 
(10, 11, 12, 13)

>  <global_duplicate_old_protected_ring_attachments>  (586) 
3,1,0,2|1,0,2;4,5,0,2|5,0,2;11,10,9,2|10,9,2;12,13,9,2|13,9,2

$$$$

     RDKit          3D

 15 16  0  0  0  0  0  0  0  0999 V2000
  -28.4380   -6.5130  -30.9870 C   0  0  0  0  0  0  0  0  0  0  0  0
  -27.9090   -6.4740  -32.2440 N   0  0  0  0  0  0  0  0  0  0  0  0
  -28.9050   -7.8130  -30.3980 N   0  0  0  0  0  0  0  0  0  0  0  0
  -27.5400   -5.2090  -32.5130 C   0  0  0  0  0  0  0  0  0  0  0  0
  -27.8470   -4.4740  -31.4070 N   0  0  0  0  0  0  0  0  0  0  0  0
  -28.3850   -5.2600  -30.4940 N   0  0  0  0  0  0  0  0  0  0  0  0
  -28.7910   -4.8470  -29.2400 C   0  0  0  0  0  0  0  0  0  0  0  0
  -29.3370   -5.5580  -28.4120 O   0  0  0  0  0  0  0  0  0  0  0  0
  -28.4400   -3.4380  -28.7140 C   0  0  0  0  0  0  0  0  0  0  0  0
  -28.8260   -9.0480  -31.2590 C   0  0  1  0  0  0  0  0  0  0  0  0
  -27.5310   -9.7410  -30.9310 C   0  0  0  0  0  0  0  0  0  0  0  0
  -27.6340  -11.0310  -31.3720 O   0  0  0  0  0  0  0  0  0  0  0  0
  -28.9040  -11.3310  -31.7630 C   0  0  0  0  0  0  0  0  0  0  0  0
  -29.7660  -10.1970  -31.2790 C   0  0  0  0  0  0  0  0  0  0  0  0
  -29.1880   -2.3100  -29.4910 C   0  0  0  0  0  0  0  0  0  0  0  0
  1  2  2  0
  1  6  1  0
  1  3  1  0
  2  4  1  0
 10  3  1  1
  4  5  2  0
  5  6  1  0
  6  7  1  0
  7  9  1  0
  7  8  2  0
 10 14  1  0
 10 11  1  0
 11 12  1  0
 12 13  1  0
 13 14  1  0
  9 15  1  0
M  END
>  <name>  (587) 
Car Nac Nd0 Car Nac Nac Cs2 .=O Cs3 C3r C3r O_a C3r C3r Cs3

>  <indices>  (587) 
[0, 1, 2]

>  <tasks>  (587) 
probe_placing close_aromatic_ring close_aromatic_ring close_aromatic_ring ring_built build_to_Nac build_DB_to_Cs2 build_SB_to_Cs2 build_to_Nd0 close_aliphatic_ring close_aliphatic_ring close_aliphatic_ring close_aliphatic_ring

>  <prot_clashes>  (587) 
8

>  <NBS phar>  (587) 
0.2

>  <NBS_non-phar>  (587) 
0.42501672108968097

>  <NBS>  (587) 
0.625016721089681

>  <source_stage>  (587) 
scored

>  <source_iter>  (587) 
12

>  <source_parent_mol>  (587) 
1

>  <source_scenario>  (587) 
1 2 3 1 7 1 0 3 3 2 1 1

>  <source_rank_in_scored_call>  (587) 
78

>  <source_current_task>  (587) 
no_task

>  <scenario>  (587) 
1 2 3 1 7 1 0 3 3 2 1

>  <protected_ring_attachments>  (587) 
3,1,0,2|1,0,2;4,5,0,2|5,0,2;11,10,9,2|10,9,2;12,13,9,2|13,9,2

>  <current_task>  (587) 
no_task

>  <rotatable_bond_torsions>  (587) 
1,0,2,9;0,2,9,10;0,5,6,8

>  <reason_to_skip>  (587) 
global_duplicate

>  <global_duplicate_rmsd>  (587) 
0.0

>  <global_duplicate_old_source_iter>  (587) 
11

>  <global_duplicate_old_source_parent_mol>  (587) 
1

>  <global_duplicate_old_index>  (587) 
NA

>  <global_duplicate_rotatable_bond_torsions>  (587) 
1,0,2,9;0,2,9,10;0,5,6,8

>  <global_duplicate_old_rotatable_bond_torsions>  (587) 
1,0,2,9;0,2,9,10;0,5,6,8

>  <global_duplicate_last_growth_torsion>  (587) 
(10, 11, 12, 13)

>  <global_duplicate_protected_ring_attachments>  (587) 
3,1,0,2|1,0,2;4,5,0,2|5,0,2;11,10,9,2|10,9,2;12,13,9,2|13,9,2

>  <global_duplicate_old_last_growth_torsion>  (587) 
(10, 11, 12, 13)

>  <global_duplicate_old_protected_ring_attachments>  (587) 
3,1,0,2|1,0,2;4,5,0,2|5,0,2;11,10,9,2|10,9,2;12,13,9,2|13,9,2

$$$$

     RDKit          3D

 15 16  0  0  0  0  0  0  0  0999 V2000
  -28.5390   -6.5210  -31.0060 C   0  0  0  0  0  0  0  0  0  0  0  0
  -27.9750   -6.4710  -32.2470 N   0  0  0  0  0  0  0  0  0  0  0  0
  -28.9770   -7.8330  -30.4210 N   0  0  0  0  0  0  0  0  0  0  0  0
  -27.6430   -5.1950  -32.5140 C   0  0  0  0  0  0  0  0  0  0  0  0
  -28.0080   -4.4650  -31.4230 N   0  0  0  0  0  0  0  0  0  0  0  0
  -28.5440   -5.2650  -30.5200 N   0  0  0  0  0  0  0  0  0  0  0  0
  -29.0010   -4.8580  -29.2820 C   0  0  0  0  0  0  0  0  0  0  0  0
  -29.5450   -5.5830  -28.4640 O   0  0  0  0  0  0  0  0  0  0  0  0
  -28.7150   -3.4340  -28.7560 C   0  0  0  0  0  0  0  0  0  0  0  0
  -28.8290   -9.0700  -31.2710 C   0  0  1  0  0  0  0  0  0  0  0  0
  -27.5220   -9.7150  -30.9000 C   0  0  0  0  0  0  0  0  0  0  0  0
  -27.5660  -11.0100  -31.3350 O   0  0  0  0  0  0  0  0  0  0  0  0
  -28.8130  -11.3570  -31.7600 C   0  0  0  0  0  0  0  0  0  0  0  0
  -29.7280  -10.2520  -31.3100 C   0  0  0  0  0  0  0  0  0  0  0  0
  -28.8900   -2.3190  -29.7880 C   0  0  0  0  0  0  0  0  0  0  0  0
  1  2  2  0
  1  6  1  0
  1  3  1  0
  2  4  1  0
 10  3  1  1
  4  5  2  0
  5  6  1  0
  6  7  1  0
  7  9  1  0
  7  8  2  0
 10 14  1  0
 10 11  1  0
 11 12  1  0
 12 13  1  0
 13 14  1  0
  9 15  1  0
M  END
>  <name>  (588) 
Car Nac Nd0 Car Nac Nac Cs2 .=O Cs3 C3r C3r O_a C3r C3r Cs3

>  <indices>  (588) 
[0, 1, 2]

>  <tasks>  (588) 
probe_placing close_aromatic_ring close_aromatic_ring close_aromatic_ring ring_built build_to_Nac build_DB_to_Cs2 build_SB_to_Cs2 build_to_Nd0 close_aliphatic_ring close_aliphatic_ring close_aliphatic_ring close_aliphatic_ring

>  <prot_clashes>  (588) 
7

>  <NBS phar>  (588) 
0.2

>  <NBS_non-phar>  (588) 
0.41480773289998374

>  <NBS>  (588) 
0.6148077328999837

>  <source_stage>  (588) 
scored

>  <source_iter>  (588) 
12

>  <source_parent_mol>  (588) 
1

>  <source_scenario>  (588) 
1 2 3 1 7 1 0 3 3 2 1 1

>  <source_rank_in_scored_call>  (588) 
85

>  <source_current_task>  (588) 
no_task

>  <scenario>  (588) 
1 2 3 1 7 1 0 3 3 2 1

>  <protected_ring_attachments>  (588) 
3,1,0,2|1,0,2;4,5,0,2|5,0,2;11,10,9,2|10,9,2;12,13,9,2|13,9,2

>  <current_task>  (588) 
no_task

>  <rotatable_bond_torsions>  (588) 
1,0,2,9;0,2,9,10;0,5,6,8

>  <reason_to_skip>  (588) 
global_duplicate

>  <global_duplicate_rmsd>  (588) 
0.0

>  <global_duplicate_old_source_iter>  (588) 
11

>  <global_duplicate_old_source_parent_mol>  (588) 
1

>  <global_duplicate_old_index>  (588) 
NA

>  <global_duplicate_rotatable_bond_torsions>  (588) 
1,0,2,9;0,2,9,10;0,5,6,8

>  <global_duplicate_old_rotatable_bond_torsions>  (588) 
1,0,2,9;0,2,9,10;0,5,6,8

>  <global_duplicate_last_growth_torsion>  (588) 
(10, 11, 12, 13)

>  <global_duplicate_protected_ring_attachments>  (588) 
3,1,0,2|1,0,2;4,5,0,2|5,0,2;11,10,9,2|10,9,2;12,13,9,2|13,9,2

>  <global_duplicate_old_last_growth_torsion>  (588) 
(10, 11, 12, 13)

>  <global_duplicate_old_protected_ring_attachments>  (588) 
3,1,0,2|1,0,2;4,5,0,2|5,0,2;11,10,9,2|10,9,2;12,13,9,2|13,9,2

$$$$

     RDKit          3D

 15 16  0  0  0  0  0  0  0  0999 V2000
  -28.3810   -6.5860  -30.9670 C   0  0  0  0  0  0  0  0  0  0  0  0
  -27.9200   -6.5590  -32.2510 N   0  0  0  0  0  0  0  0  0  0  0  0
  -28.8860   -7.8650  -30.3660 N   0  0  0  0  0  0  0  0  0  0  0  0
  -27.4990   -5.3120  -32.5270 C   0  0  0  0  0  0  0  0  0  0  0  0
  -27.7050   -4.5760  -31.3990 N   0  0  0  0  0  0  0  0  0  0  0  0
  -28.2340   -5.3440  -30.4660 N   0  0  0  0  0  0  0  0  0  0  0  0
  -28.5490   -4.9250  -29.1880 C   0  0  0  0  0  0  0  0  0  0  0  0
  -29.0860   -5.6160  -28.3370 O   0  0  0  0  0  0  0  0  0  0  0  0
  -28.0930   -3.5430  -28.6690 C   0  0  0  0  0  0  0  0  0  0  0  0
  -28.9200   -9.0930  -31.2410 C   0  0  1  0  0  0  0  0  0  0  0  0
  -27.6490   -9.8580  -30.9910 C   0  0  0  0  0  0  0  0  0  0  0  0
  -27.8460  -11.1340  -31.4380 O   0  0  0  0  0  0  0  0  0  0  0  0
  -29.1500  -11.3610  -31.7610 C   0  0  0  0  0  0  0  0  0  0  0  0
  -29.9210  -10.1890  -31.2200 C   0  0  0  0  0  0  0  0  0  0  0  0
  -29.1910   -2.5330  -28.5010 C   0  0  0  0  0  0  0  0  0  0  0  0
  1  2  2  0
  1  6  1  0
  1  3  1  0
  2  4  1  0
 10  3  1  1
  4  5  2  0
  5  6  1  0
  6  7  1  0
  7  9  1  0
  7  8  2  0
 10 14  1  0
 10 11  1  0
 11 12  1  0
 12 13  1  0
 13 14  1  0
  9 15  1  0
M  END
>  <name>  (589) 
Car Nac Nd0 Car Nac Nac Cs2 .=O Cs3 C3r C3r O_a C3r C3r Cs3

>  <indices>  (589) 
[0, 1, 2]

>  <tasks>  (589) 
probe_placing close_aromatic_ring close_aromatic_ring close_aromatic_ring ring_built build_to_Nac build_DB_to_Cs2 build_SB_to_Cs2 build_to_Nd0 close_aliphatic_ring close_aliphatic_ring close_aliphatic_ring close_aliphatic_ring

>  <prot_clashes>  (589) 
10

>  <NBS phar>  (589) 
0.2

>  <NBS_non-phar>  (589) 
0.41041673024495445

>  <NBS>  (589) 
0.6104167302449545

>  <source_stage>  (589) 
scored

>  <source_iter>  (589) 
12

>  <source_parent_mol>  (589) 
1

>  <source_scenario>  (589) 
1 2 3 1 7 1 0 3 3 2 1 1

>  <source_rank_in_scored_call>  (589) 
88

>  <source_current_task>  (589) 
no_task

>  <scenario>  (589) 
1 2 3 1 7 1 0 3 3 2 1

>  <protected_ring_attachments>  (589) 
3,1,0,2|1,0,2;4,5,0,2|5,0,2;11,10,9,2|10,9,2;12,13,9,2|13,9,2

>  <current_task>  (589) 
no_task

>  <rotatable_bond_torsions>  (589) 
1,0,2,9;0,2,9,10;0,5,6,8

>  <reason_to_skip>  (589) 
global_duplicate

>  <global_duplicate_rmsd>  (589) 
0.0

>  <global_duplicate_old_source_iter>  (589) 
11

>  <global_duplicate_old_source_parent_mol>  (589) 
1

>  <global_duplicate_old_index>  (589) 
NA

>  <global_duplicate_rotatable_bond_torsions>  (589) 
1,0,2,9;0,2,9,10;0,5,6,8

>  <global_duplicate_old_rotatable_bond_torsions>  (589) 
1,0,2,9;0,2,9,10;0,5,6,8

>  <global_duplicate_last_growth_torsion>  (589) 
(10, 11, 12, 13)

>  <global_duplicate_protected_ring_attachments>  (589) 
3,1,0,2|1,0,2;4,5,0,2|5,0,2;11,10,9,2|10,9,2;12,13,9,2|13,9,2

>  <global_duplicate_old_last_growth_torsion>  (589) 
(10, 11, 12, 13)

>  <global_duplicate_old_protected_ring_attachments>  (589) 
3,1,0,2|1,0,2;4,5,0,2|5,0,2;11,10,9,2|10,9,2;12,13,9,2|13,9,2

$$$$

     RDKit          3D

 15 16  0  0  0  0  0  0  0  0999 V2000
  -28.4970   -6.5570  -30.9500 C   0  0  0  0  0  0  0  0  0  0  0  0
  -28.0430   -6.6050  -32.2360 N   0  0  0  0  0  0  0  0  0  0  0  0
  -28.9410   -7.8110  -30.2540 N   0  0  0  0  0  0  0  0  0  0  0  0
  -27.6790   -5.3630  -32.6050 C   0  0  0  0  0  0  0  0  0  0  0  0
  -27.9130   -4.5570  -31.5320 N   0  0  0  0  0  0  0  0  0  0  0  0
  -28.4040   -5.2770  -30.5410 N   0  0  0  0  0  0  0  0  0  0  0  0
  -28.7310   -4.7810  -29.2950 C   0  0  0  0  0  0  0  0  0  0  0  0
  -29.2340   -5.4310  -28.3930 O   0  0  0  0  0  0  0  0  0  0  0  0
  -28.3360   -3.3460  -28.8810 C   0  0  0  0  0  0  0  0  0  0  0  0
  -28.9240   -9.0990  -31.0370 C   0  0  1  0  0  0  0  0  0  0  0  0
  -27.6190   -9.7870  -30.7420 C   0  0  0  0  0  0  0  0  0  0  0  0
  -27.7600  -11.1000  -31.0930 O   0  0  0  0  0  0  0  0  0  0  0  0
  -29.0540  -11.4080  -31.3890 C   0  0  0  0  0  0  0  0  0  0  0  0
  -29.8750  -10.2350  -30.9290 C   0  0  0  0  0  0  0  0  0  0  0  0
  -29.1860   -2.7150  -27.8010 C   0  0  0  0  0  0  0  0  0  0  0  0
  1  2  2  0
  1  6  1  0
  1  3  1  0
  2  4  1  0
 10  3  1  1
  4  5  2  0
  5  6  1  0
  6  7  1  0
  7  9  1  0
  7  8  2  0
 10 14  1  0
 10 11  1  0
 11 12  1  0
 12 13  1  0
 13 14  1  0
  9 15  1  0
M  END
>  <name>  (590) 
Car Nac Nd0 Car Nac Nac Cs2 .=O Cs3 C3r C3r O_a C3r C3r Cs3

>  <indices>  (590) 
[0, 1, 2]

>  <tasks>  (590) 
probe_placing close_aromatic_ring close_aromatic_ring close_aromatic_ring ring_built build_to_Nac build_DB_to_Cs2 build_SB_to_Cs2 build_to_Nd0 close_aliphatic_ring close_aliphatic_ring close_aliphatic_ring close_aliphatic_ring

>  <prot_clashes>  (590) 
10

>  <NBS phar>  (590) 
0.13999999999999999

>  <NBS_non-phar>  (590) 
0.46362886428833006

>  <NBS>  (590) 
0.6036288642883301

>  <source_stage>  (590) 
scored

>  <source_iter>  (590) 
12

>  <source_parent_mol>  (590) 
1

>  <source_scenario>  (590) 
1 2 3 1 7 1 0 3 3 2 1 1

>  <source_rank_in_scored_call>  (590) 
91

>  <source_current_task>  (590) 
no_task

>  <scenario>  (590) 
1 2 3 1 7 1 0 3 3 2 1

>  <protected_ring_attachments>  (590) 
3,1,0,2|1,0,2;4,5,0,2|5,0,2;11,10,9,2|10,9,2;12,13,9,2|13,9,2

>  <current_task>  (590) 
no_task

>  <rotatable_bond_torsions>  (590) 
1,0,2,9;0,2,9,10;0,5,6,8

>  <reason_to_skip>  (590) 
global_duplicate

>  <global_duplicate_rmsd>  (590) 
0.0

>  <global_duplicate_old_source_iter>  (590) 
11

>  <global_duplicate_old_source_parent_mol>  (590) 
1

>  <global_duplicate_old_index>  (590) 
NA

>  <global_duplicate_rotatable_bond_torsions>  (590) 
1,0,2,9;0,2,9,10;0,5,6,8

>  <global_duplicate_old_rotatable_bond_torsions>  (590) 
1,0,2,9;0,2,9,10;0,5,6,8

>  <global_duplicate_last_growth_torsion>  (590) 
(10, 11, 12, 13)

>  <global_duplicate_protected_ring_attachments>  (590) 
3,1,0,2|1,0,2;4,5,0,2|5,0,2;11,10,9,2|10,9,2;12,13,9,2|13,9,2

>  <global_duplicate_old_last_growth_torsion>  (590) 
(10, 11, 12, 13)

>  <global_duplicate_old_protected_ring_attachments>  (590) 
3,1,0,2|1,0,2;4,5,0,2|5,0,2;11,10,9,2|10,9,2;12,13,9,2|13,9,2

$$$$

     RDKit          3D

 15 16  0  0  0  0  0  0  0  0999 V2000
  -28.5580   -6.4920  -30.8480 C   0  0  0  0  0  0  0  0  0  0  0  0
  -27.9130   -6.5890  -32.0460 N   0  0  0  0  0  0  0  0  0  0  0  0
  -29.0670   -7.7230  -30.1560 N   0  0  0  0  0  0  0  0  0  0  0  0
  -27.5320   -5.3560  -32.4270 C   0  0  0  0  0  0  0  0  0  0  0  0
  -27.9490   -4.5040  -31.4490 N   0  0  0  0  0  0  0  0  0  0  0  0
  -28.5630   -5.1890  -30.5030 N   0  0  0  0  0  0  0  0  0  0  0  0
  -29.0890   -4.6410  -29.3500 C   0  0  0  0  0  0  0  0  0  0  0  0
  -29.7040   -5.2610  -28.4980 O   0  0  0  0  0  0  0  0  0  0  0  0
  -28.8010   -3.1730  -28.9640 C   0  0  0  0  0  0  0  0  0  0  0  0
  -28.8960   -9.0480  -30.8530 C   0  0  1  0  0  0  0  0  0  0  0  0
  -27.6320   -9.6720  -30.3280 C   0  0  0  0  0  0  0  0  0  0  0  0
  -27.6810  -11.0060  -30.6210 O   0  0  0  0  0  0  0  0  0  0  0  0
  -28.9060  -11.3750  -31.0890 C   0  0  0  0  0  0  0  0  0  0  0  0
  -29.8200  -10.2100  -30.8250 C   0  0  0  0  0  0  0  0  0  0  0  0
  -29.3480   -2.7790  -27.6290 C   0  0  0  0  0  0  0  0  0  0  0  0
  1  2  2  0
  1  6  1  0
  1  3  1  0
  2  4  1  0
 10  3  1  1
  4  5  2  0
  5  6  1  0
  6  7  1  0
  7  9  1  0
  7  8  2  0
 10 14  1  0
 10 11  1  0
 11 12  1  0
 12 13  1  0
 13 14  1  0
  9 15  1  0
M  END
>  <name>  (591) 
Car Nac Nd0 Car Nac Nac Cs2 .=O Cs3 C3r C3r O_a C3r C3r Cs3

>  <indices>  (591) 
[0, 1, 2]

>  <tasks>  (591) 
probe_placing close_aromatic_ring close_aromatic_ring close_aromatic_ring ring_built build_to_Nac build_DB_to_Cs2 build_SB_to_Cs2 build_to_Nd0 close_aliphatic_ring close_aliphatic_ring close_aliphatic_ring close_aliphatic_ring

>  <prot_clashes>  (591) 
11

>  <NBS phar>  (591) 
0.13999999999999999

>  <NBS_non-phar>  (591) 
0.4588968594868978

>  <NBS>  (591) 
0.5988968594868977

>  <source_stage>  (591) 
scored

>  <source_iter>  (591) 
12

>  <source_parent_mol>  (591) 
1

>  <source_scenario>  (591) 
1 2 3 1 7 1 0 3 3 2 1 1

>  <source_rank_in_scored_call>  (591) 
94

>  <source_current_task>  (591) 
no_task

>  <scenario>  (591) 
1 2 3 1 7 1 0 3 3 2 1

>  <protected_ring_attachments>  (591) 
3,1,0,2|1,0,2;4,5,0,2|5,0,2;11,10,9,2|10,9,2;12,13,9,2|13,9,2

>  <current_task>  (591) 
no_task

>  <rotatable_bond_torsions>  (591) 
1,0,2,9;0,2,9,10;0,5,6,8

>  <reason_to_skip>  (591) 
global_duplicate

>  <global_duplicate_rmsd>  (591) 
0.0

>  <global_duplicate_old_source_iter>  (591) 
11

>  <global_duplicate_old_source_parent_mol>  (591) 
1

>  <global_duplicate_old_index>  (591) 
NA

>  <global_duplicate_rotatable_bond_torsions>  (591) 
1,0,2,9;0,2,9,10;0,5,6,8

>  <global_duplicate_old_rotatable_bond_torsions>  (591) 
1,0,2,9;0,2,9,10;0,5,6,8

>  <global_duplicate_last_growth_torsion>  (591) 
(10, 11, 12, 13)

>  <global_duplicate_protected_ring_attachments>  (591) 
3,1,0,2|1,0,2;4,5,0,2|5,0,2;11,10,9,2|10,9,2;12,13,9,2|13,9,2

>  <global_duplicate_old_last_growth_torsion>  (591) 
(10, 11, 12, 13)

>  <global_duplicate_old_protected_ring_attachments>  (591) 
3,1,0,2|1,0,2;4,5,0,2|5,0,2;11,10,9,2|10,9,2;12,13,9,2|13,9,2

$$$$

     RDKit          3D

 15 16  0  0  0  0  0  0  0  0999 V2000
  -28.6370   -6.5240  -30.8080 C   0  0  0  0  0  0  0  0  0  0  0  0
  -28.0220   -6.7150  -32.0110 N   0  0  0  0  0  0  0  0  0  0  0  0
  -29.1350   -7.6960  -30.0130 N   0  0  0  0  0  0  0  0  0  0  0  0
  -27.6450   -5.5170  -32.4920 C   0  0  0  0  0  0  0  0  0  0  0  0
  -28.0340   -4.5910  -31.5720 N   0  0  0  0  0  0  0  0  0  0  0  0
  -28.6290   -5.1990  -30.5630 N   0  0  0  0  0  0  0  0  0  0  0  0
  -29.1250   -4.5620  -29.4420 C   0  0  0  0  0  0  0  0  0  0  0  0
  -29.7220   -5.1130  -28.5310 O   0  0  0  0  0  0  0  0  0  0  0  0
  -28.8210   -3.0710  -29.1740 C   0  0  0  0  0  0  0  0  0  0  0  0
  -28.9870   -9.0720  -30.6130 C   0  0  1  0  0  0  0  0  0  0  0  0
  -27.7130   -9.6620  -30.0720 C   0  0  0  0  0  0  0  0  0  0  0  0
  -27.7750  -11.0140  -30.2620 O   0  0  0  0  0  0  0  0  0  0  0  0
  -29.0130  -11.4100  -30.6720 C   0  0  0  0  0  0  0  0  0  0  0  0
  -29.9150  -10.2230  -30.4750 C   0  0  0  0  0  0  0  0  0  0  0  0
  -28.6100   -2.8370  -27.7460 C   0  0  0  0  0  0  0  0  0  0  0  0
  1  2  2  0
  1  6  1  0
  1  3  1  0
  2  4  1  0
 10  3  1  1
  4  5  2  0
  5  6  1  0
  6  7  1  0
  7  9  1  0
  7  8  2  0
 10 14  1  0
 10 11  1  0
 11 12  1  0
 12 13  1  0
 13 14  1  0
  9 15  1  0
M  END
>  <name>  (592) 
Car Nac Nd0 Car Nac Nac Cs2 .=O Cs3 C3r C3r O_a C3r C3r Cs3

>  <indices>  (592) 
[0, 1, 2]

>  <tasks>  (592) 
probe_placing close_aromatic_ring close_aromatic_ring close_aromatic_ring ring_built build_to_Nac build_DB_to_Cs2 build_SB_to_Cs2 build_to_Nd0 close_aliphatic_ring close_aliphatic_ring close_aliphatic_ring close_aliphatic_ring

>  <prot_clashes>  (592) 
9

>  <NBS phar>  (592) 
0.12

>  <NBS_non-phar>  (592) 
0.40681772232055663

>  <NBS>  (592) 
0.5268177223205566

>  <source_stage>  (592) 
scored

>  <source_iter>  (592) 
12

>  <source_parent_mol>  (592) 
1

>  <source_scenario>  (592) 
1 2 3 1 7 1 0 3 3 2 1 1

>  <source_rank_in_scored_call>  (592) 
101

>  <source_current_task>  (592) 
no_task

>  <scenario>  (592) 
1 2 3 1 7 1 0 3 3 2 1

>  <protected_ring_attachments>  (592) 
3,1,0,2|1,0,2;4,5,0,2|5,0,2;11,10,9,2|10,9,2;12,13,9,2|13,9,2

>  <current_task>  (592) 
no_task

>  <rotatable_bond_torsions>  (592) 
1,0,2,9;0,2,9,10;0,5,6,8

>  <reason_to_skip>  (592) 
global_duplicate

>  <global_duplicate_rmsd>  (592) 
0.0

>  <global_duplicate_old_source_iter>  (592) 
11

>  <global_duplicate_old_source_parent_mol>  (592) 
1

>  <global_duplicate_old_index>  (592) 
NA

>  <global_duplicate_rotatable_bond_torsions>  (592) 
1,0,2,9;0,2,9,10;0,5,6,8

>  <global_duplicate_old_rotatable_bond_torsions>  (592) 
1,0,2,9;0,2,9,10;0,5,6,8

>  <global_duplicate_last_growth_torsion>  (592) 
(10, 11, 12, 13)

>  <global_duplicate_protected_ring_attachments>  (592) 
3,1,0,2|1,0,2;4,5,0,2|5,0,2;11,10,9,2|10,9,2;12,13,9,2|13,9,2

>  <global_duplicate_old_last_growth_torsion>  (592) 
(10, 11, 12, 13)

>  <global_duplicate_old_protected_ring_attachments>  (592) 
3,1,0,2|1,0,2;4,5,0,2|5,0,2;11,10,9,2|10,9,2;12,13,9,2|13,9,2

$$$$

     RDKit          3D

 15 16  0  0  0  0  0  0  0  0999 V2000
  -28.5330   -6.3520  -31.1270 C   0  0  0  0  0  0  0  0  0  0  0  0
  -27.7830   -6.3520  -32.2660 N   0  0  0  0  0  0  0  0  0  0  0  0
  -29.1590   -7.6240  -30.6290 N   0  0  0  0  0  0  0  0  0  0  0  0
  -27.3130   -5.1080  -32.4670 C   0  0  0  0  0  0  0  0  0  0  0  0
  -27.7850   -4.3460  -31.4390 N   0  0  0  0  0  0  0  0  0  0  0  0
  -28.5150   -5.0970  -30.6370 N   0  0  0  0  0  0  0  0  0  0  0  0
  -29.1230   -4.6540  -29.4810 C   0  0  0  0  0  0  0  0  0  0  0  0
  -29.8440   -5.3300  -28.7640 O   0  0  0  0  0  0  0  0  0  0  0  0
  -28.8130   -3.2550  -28.9050 C   0  0  0  0  0  0  0  0  0  0  0  0
  -28.6510   -8.3300  -29.6070 C   0  0  0  0  0  0  0  0  0  0  0  0
  -29.5170   -9.2090  -28.9510 C   0  0  0  0  0  0  0  0  0  0  0  0
  -29.0630   -9.9040  -27.8300 C   0  0  0  0  0  0  0  0  0  0  0  0
  -27.7770   -9.7450  -27.3530 C   0  0  0  0  0  0  0  0  0  0  0  0
  -26.9380   -8.8710  -28.0150 C   0  0  0  0  0  0  0  0  0  0  0  0
  -27.3670   -8.1720  -29.1260 C   0  0  0  0  0  0  0  0  0  0  0  0
  1  2  2  0
  1  6  1  0
  1  3  1  0
  2  4  1  0
  3 10  1  0
  4  5  2  0
  5  6  1  0
  6  7  1  0
  7  9  1  0
  7  8  2  0
 10 15  1  0
 10 11  2  0
 11 12  1  0
 12 13  2  0
 13 14  1  0
 14 15  2  0
M  END
>  <name>  (593) 
Car Nac Nd0 Car Nac Nac Cs2 .=O Cs3 Car Car Car Car Car Car

>  <indices>  (593) 
[0, 1, 2]

>  <tasks>  (593) 
probe_placing close_aromatic_ring close_aromatic_ring close_aromatic_ring ring_built build_to_Nac build_DB_to_Cs2 build_SB_to_Cs2 build_to_Nd0 close_aromatic_ring close_aromatic_ring close_aromatic_ring close_aromatic_ring

>  <prot_clashes>  (593) 
3

>  <NBS phar>  (593) 
0.22000000000000003

>  <NBS_non-phar>  (593) 
0.47938769658406577

>  <NBS>  (593) 
0.6993876965840657

>  <source_stage>  (593) 
scored

>  <source_iter>  (593) 
12

>  <source_parent_mol>  (593) 
1

>  <source_scenario>  (593) 
1 2 3 1 7 1 0 4 2 2 2 1

>  <source_rank_in_scored_call>  (593) 
0

>  <source_current_task>  (593) 
close_aromatic_ring

>  <scenario>  (593) 
1 2 3 1 7 1 0 4 2 2 2

>  <protected_ring_attachments>  (593) 
3,1,0,2|1,0,2;4,5,0,2|5,0,2

>  <current_task>  (593) 
no_task

>  <rotatable_bond_torsions>  (593) 
1,0,2,9;0,2,9,10;0,5,6,8;2,9,10,11;10,11,12,13

$$$$

     RDKit          3D

 16 17  0  0  0  0  0  0  0  0999 V2000
  -28.4950   -6.3080  -31.0500 C   0  0  0  0  0  0  0  0  0  0  0  0
  -27.9030   -6.3630  -32.2780 N   0  0  0  0  0  0  0  0  0  0  0  0
  -29.2010   -7.5110  -30.4920 N   0  0  0  0  0  0  0  0  0  0  0  0
  -27.3160   -5.1780  -32.5220 C   0  0  0  0  0  0  0  0  0  0  0  0
  -27.5570   -4.3960  -31.4310 N   0  0  0  0  0  0  0  0  0  0  0  0
  -28.2630   -5.0780  -30.5510 N   0  0  0  0  0  0  0  0  0  0  0  0
  -28.6600   -4.6000  -29.3190 C   0  0  0  0  0  0  0  0  0  0  0  0
  -29.3600   -5.2060  -28.5230 O   0  0  0  0  0  0  0  0  0  0  0  0
  -28.1130   -3.2640  -28.7710 C   0  0  0  0  0  0  0  0  0  0  0  0
  -28.6550   -8.3010  -29.5540 C   0  0  0  0  0  0  0  0  0  0  0  0
  -29.5290   -9.0900  -28.8020 C   0  0  0  0  0  0  0  0  0  0  0  0
  -29.0220   -9.8650  -27.7590 C   0  0  0  0  0  0  0  0  0  0  0  0
  -27.6760   -9.8730  -27.4520 C   0  0  0  0  0  0  0  0  0  0  0  0
  -26.8300   -9.0850  -28.2070 C   0  0  0  0  0  0  0  0  0  0  0  0
  -27.3100   -8.3090  -29.2430 C   0  0  0  0  0  0  0  0  0  0  0  0
  -29.1840   -2.4600  -28.1050 C   0  0  0  0  0  0  0  0  0  0  0  0
  1  2  2  0
  1  6  1  0
  1  3  1  0
  2  4  1  0
  3 10  1  0
  4  5  2  0
  5  6  1  0
  6  7  1  0
  7  9  1  0
  7  8  2  0
 10 15  1  0
 10 11  2  0
 11 12  1  0
 12 13  2  0
 13 14  1  0
 14 15  2  0
  9 16  1  0
M  END
>  <name>  (594) 
Car Nac Nd0 Car Nac Nac Cs2 .=O Cs3 Car Car Car Car Car Car Cs3

>  <indices>  (594) 
[0, 1, 2]

>  <tasks>  (594) 
probe_placing close_aromatic_ring close_aromatic_ring close_aromatic_ring ring_built build_to_Nac build_DB_to_Cs2 build_SB_to_Cs2 build_to_Nd0 close_aromatic_ring close_aromatic_ring close_aromatic_ring close_aromatic_ring close_aromatic_ring

>  <prot_clashes>  (594) 
5

>  <NBS phar>  (594) 
0.26000000000000006

>  <NBS_non-phar>  (594) 
0.4799395203590393

>  <NBS>  (594) 
0.7399395203590393

>  <source_stage>  (594) 
scored

>  <source_iter>  (594) 
13

>  <source_parent_mol>  (594) 
0

>  <source_scenario>  (594) 
1 2 3 1 7 1 0 4 2 2 2 1 0

>  <source_rank_in_scored_call>  (594) 
4

>  <source_current_task>  (594) 
no_task

>  <scenario>  (594) 
1 2 3 1 7 1 0 4 2 2 2 1

>  <protected_ring_attachments>  (594) 
3,1,0,2|1,0,2;4,5,0,2|5,0,2;11,10,9,2|10,9,2;13,14,9,2|14,9,2

>  <current_task>  (594) 
no_task

>  <rotatable_bond_torsions>  (594) 
1,0,2,9;0,2,9,10;0,5,6,8

$$$$

     RDKit          3D

 16 17  0  0  0  0  0  0  0  0999 V2000
  -28.5330   -6.3520  -31.1270 C   0  0  0  0  0  0  0  0  0  0  0  0
  -27.7830   -6.3520  -32.2660 N   0  0  0  0  0  0  0  0  0  0  0  0
  -29.1590   -7.6240  -30.6290 N   0  0  0  0  0  0  0  0  0  0  0  0
  -27.3130   -5.1080  -32.4670 C   0  0  0  0  0  0  0  0  0  0  0  0
  -27.7850   -4.3460  -31.4390 N   0  0  0  0  0  0  0  0  0  0  0  0
  -28.5150   -5.0970  -30.6370 N   0  0  0  0  0  0  0  0  0  0  0  0
  -29.1230   -4.6540  -29.4810 C   0  0  0  0  0  0  0  0  0  0  0  0
  -29.8440   -5.3300  -28.7640 O   0  0  0  0  0  0  0  0  0  0  0  0
  -28.8130   -3.2550  -28.9050 C   0  0  0  0  0  0  0  0  0  0  0  0
  -28.6510   -8.3300  -29.6070 C   0  0  0  0  0  0  0  0  0  0  0  0
  -29.5170   -9.2090  -28.9510 C   0  0  0  0  0  0  0  0  0  0  0  0
  -29.0630   -9.9040  -27.8300 C   0  0  0  0  0  0  0  0  0  0  0  0
  -27.7770   -9.7450  -27.3530 C   0  0  0  0  0  0  0  0  0  0  0  0
  -26.9380   -8.8710  -28.0150 C   0  0  0  0  0  0  0  0  0  0  0  0
  -27.3670   -8.1720  -29.1260 C   0  0  0  0  0  0  0  0  0  0  0  0
  -28.7430   -2.1310  -29.9420 C   0  0  0  0  0  0  0  0  0  0  0  0
  1  2  2  0
  1  6  1  0
  1  3  1  0
  2  4  1  0
  3 10  1  0
  4  5  2  0
  5  6  1  0
  6  7  1  0
  7  9  1  0
  7  8  2  0
 10 15  1  0
 10 11  2  0
 11 12  1  0
 12 13  2  0
 13 14  1  0
 14 15  2  0
  9 16  1  0
M  END
>  <name>  (595) 
Car Nac Nd0 Car Nac Nac Cs2 .=O Cs3 Car Car Car Car Car Car Cs3

>  <indices>  (595) 
[0, 1, 2]

>  <tasks>  (595) 
probe_placing close_aromatic_ring close_aromatic_ring close_aromatic_ring ring_built build_to_Nac build_DB_to_Cs2 build_SB_to_Cs2 build_to_Nd0 close_aromatic_ring close_aromatic_ring close_aromatic_ring close_aromatic_ring close_aromatic_ring

>  <prot_clashes>  (595) 
2

>  <NBS phar>  (595) 
0.24000000000000005

>  <NBS_non-phar>  (595) 
0.49500349164009094

>  <NBS>  (595) 
0.7350034916400909

>  <source_stage>  (595) 
scored

>  <source_iter>  (595) 
13

>  <source_parent_mol>  (595) 
0

>  <source_scenario>  (595) 
1 2 3 1 7 1 0 4 2 2 2 1 0

>  <source_rank_in_scored_call>  (595) 
6

>  <source_current_task>  (595) 
no_task

>  <scenario>  (595) 
1 2 3 1 7 1 0 4 2 2 2 1

>  <protected_ring_attachments>  (595) 
3,1,0,2|1,0,2;4,5,0,2|5,0,2;11,10,9,2|10,9,2;13,14,9,2|14,9,2

>  <current_task>  (595) 
no_task

>  <rotatable_bond_torsions>  (595) 
1,0,2,9;0,2,9,10;0,5,6,8

$$$$

     RDKit          3D

 16 17  0  0  0  0  0  0  0  0999 V2000
  -28.5330   -6.3510  -31.1260 C   0  0  0  0  0  0  0  0  0  0  0  0
  -27.7830   -6.3520  -32.2650 N   0  0  0  0  0  0  0  0  0  0  0  0
  -29.1590   -7.6230  -30.6280 N   0  0  0  0  0  0  0  0  0  0  0  0
  -27.3130   -5.1080  -32.4670 C   0  0  0  0  0  0  0  0  0  0  0  0
  -27.7850   -4.3450  -31.4400 N   0  0  0  0  0  0  0  0  0  0  0  0
  -28.5150   -5.0960  -30.6370 N   0  0  0  0  0  0  0  0  0  0  0  0
  -29.1230   -4.6520  -29.4810 C   0  0  0  0  0  0  0  0  0  0  0  0
  -29.8440   -5.3280  -28.7640 O   0  0  0  0  0  0  0  0  0  0  0  0
  -28.8130   -3.2530  -28.9060 C   0  0  0  0  0  0  0  0  0  0  0  0
  -28.6510   -8.3280  -29.6050 C   0  0  0  0  0  0  0  0  0  0  0  0
  -29.5170   -9.2070  -28.9490 C   0  0  0  0  0  0  0  0  0  0  0  0
  -29.0630   -9.9010  -27.8270 C   0  0  0  0  0  0  0  0  0  0  0  0
  -27.7770   -9.7420  -27.3500 C   0  0  0  0  0  0  0  0  0  0  0  0
  -26.9380   -8.8680  -28.0130 C   0  0  0  0  0  0  0  0  0  0  0  0
  -27.3670   -8.1700  -29.1240 C   0  0  0  0  0  0  0  0  0  0  0  0
  -27.4860   -3.1190  -28.2170 C   0  0  0  0  0  0  0  0  0  0  0  0
  1  2  2  0
  1  6  1  0
  1  3  1  0
  2  4  1  0
  3 10  1  0
  4  5  2  0
  5  6  1  0
  6  7  1  0
  7  9  1  0
  7  8  2  0
 10 15  1  0
 10 11  2  0
 11 12  1  0
 12 13  2  0
 13 14  1  0
 14 15  2  0
  9 16  1  0
M  END
>  <name>  (596) 
Car Nac Nd0 Car Nac Nac Cs2 .=O Cs3 Car Car Car Car Car Car Cs3

>  <indices>  (596) 
[0, 1, 2]

>  <tasks>  (596) 
probe_placing close_aromatic_ring close_aromatic_ring close_aromatic_ring ring_built build_to_Nac build_DB_to_Cs2 build_SB_to_Cs2 build_to_Nd0 close_aromatic_ring close_aromatic_ring close_aromatic_ring close_aromatic_ring close_aromatic_ring

>  <prot_clashes>  (596) 
3

>  <NBS phar>  (596) 
0.22000000000000003

>  <NBS_non-phar>  (596) 
0.5069668292999268

>  <NBS>  (596) 
0.7269668292999267

>  <source_stage>  (596) 
scored

>  <source_iter>  (596) 
13

>  <source_parent_mol>  (596) 
0

>  <source_scenario>  (596) 
1 2 3 1 7 1 0 4 2 2 2 1 0

>  <source_rank_in_scored_call>  (596) 
11

>  <source_current_task>  (596) 
no_task

>  <scenario>  (596) 
1 2 3 1 7 1 0 4 2 2 2 1

>  <protected_ring_attachments>  (596) 
3,1,0,2|1,0,2;4,5,0,2|5,0,2;11,10,9,2|10,9,2;13,14,9,2|14,9,2

>  <current_task>  (596) 
no_task

>  <rotatable_bond_torsions>  (596) 
1,0,2,9;0,2,9,10;0,5,6,8

$$$$

     RDKit          3D

 16 17  0  0  0  0  0  0  0  0999 V2000
  -28.5330   -6.3400  -31.1520 C   0  0  0  0  0  0  0  0  0  0  0  0
  -27.7600   -6.3200  -32.2750 N   0  0  0  0  0  0  0  0  0  0  0  0
  -29.1880   -7.6160  -30.7030 N   0  0  0  0  0  0  0  0  0  0  0  0
  -27.2680   -5.0780  -32.4310 C   0  0  0  0  0  0  0  0  0  0  0  0
  -27.7500   -4.3380  -31.3920 N   0  0  0  0  0  0  0  0  0  0  0  0
  -28.5070   -5.1000  -30.6260 N   0  0  0  0  0  0  0  0  0  0  0  0
  -29.1320   -4.6810  -29.4710 C   0  0  0  0  0  0  0  0  0  0  0  0
  -29.8780   -5.3660  -28.7880 O   0  0  0  0  0  0  0  0  0  0  0  0
  -28.8140   -3.3030  -28.8490 C   0  0  0  0  0  0  0  0  0  0  0  0
  -28.7110   -8.3580  -29.6920 C   0  0  0  0  0  0  0  0  0  0  0  0
  -29.6030   -9.2420  -29.0790 C   0  0  0  0  0  0  0  0  0  0  0  0
  -29.1830   -9.9750  -27.9690 C   0  0  0  0  0  0  0  0  0  0  0  0
  -27.9050   -9.8490  -27.4620 C   0  0  0  0  0  0  0  0  0  0  0  0
  -27.0400   -8.9700  -28.0820 C   0  0  0  0  0  0  0  0  0  0  0  0
  -27.4350   -8.2340  -29.1810 C   0  0  0  0  0  0  0  0  0  0  0  0
  -27.4650  -10.6510  -26.2620 C   0  0  0  0  0  0  0  0  0  0  0  0
  1  2  2  0
  1  3  1  0
  1  6  1  0
  2  4  1  0
  3 10  1  0
  4  5  2  0
  5  6  1  0
  6  7  1  0
  7  9  1  0
  7  8  2  0
 10 15  1  0
 10 11  2  0
 11 12  1  0
 12 13  2  0
 13 14  1  0
 13 16  1  0
 14 15  2  0
M  END
>  <name>  (597) 
Car Nac Nd0 Car Nac Nac Cs2 .=O Cs3 Car Car Car Car Car Car Cs3

>  <indices>  (597) 
[0, 1, 2]

>  <tasks>  (597) 
probe_placing close_aromatic_ring close_aromatic_ring close_aromatic_ring ring_built build_to_Nac build_DB_to_Cs2 build_SB_to_Cs2 build_to_Nd0 close_aromatic_ring close_aromatic_ring close_aromatic_ring close_aromatic_ring close_aromatic_ring

>  <prot_clashes>  (597) 
4

>  <NBS phar>  (597) 
0.22000000000000003

>  <NBS_non-phar>  (597) 
0.4872981011867523

>  <NBS>  (597) 
0.7072981011867523

>  <source_stage>  (597) 
scored

>  <source_iter>  (597) 
13

>  <source_parent_mol>  (597) 
0

>  <source_scenario>  (597) 
1 2 3 1 7 1 0 4 2 2 2 1 0

>  <source_rank_in_scored_call>  (597) 
21

>  <source_current_task>  (597) 
no_task

>  <scenario>  (597) 
1 2 3 1 7 1 0 4 2 2 2 1

>  <protected_ring_attachments>  (597) 
3,1,0,2|1,0,2;4,5,0,2|5,0,2;11,10,9,2|10,9,2;13,14,9,2|14,9,2

>  <current_task>  (597) 
no_task

>  <rotatable_bond_torsions>  (597) 
1,0,2,9;0,2,9,10;0,5,6,8

$$$$

     RDKit          3D

 16 17  0  0  0  0  0  0  0  0999 V2000
  -28.5330   -6.3510  -31.1270 C   0  0  0  0  0  0  0  0  0  0  0  0
  -27.7830   -6.3520  -32.2660 N   0  0  0  0  0  0  0  0  0  0  0  0
  -29.1590   -7.6220  -30.6280 N   0  0  0  0  0  0  0  0  0  0  0  0
  -27.3130   -5.1080  -32.4680 C   0  0  0  0  0  0  0  0  0  0  0  0
  -27.7850   -4.3450  -31.4410 N   0  0  0  0  0  0  0  0  0  0  0  0
  -28.5150   -5.0950  -30.6380 N   0  0  0  0  0  0  0  0  0  0  0  0
  -29.1230   -4.6510  -29.4830 C   0  0  0  0  0  0  0  0  0  0  0  0
  -29.8440   -5.3270  -28.7650 O   0  0  0  0  0  0  0  0  0  0  0  0
  -28.8130   -3.2520  -28.9080 C   0  0  0  0  0  0  0  0  0  0  0  0
  -28.6510   -8.3280  -29.6050 C   0  0  0  0  0  0  0  0  0  0  0  0
  -29.5170   -9.2060  -28.9490 C   0  0  0  0  0  0  0  0  0  0  0  0
  -29.0630   -9.9000  -27.8270 C   0  0  0  0  0  0  0  0  0  0  0  0
  -27.7770   -9.7410  -27.3500 C   0  0  0  0  0  0  0  0  0  0  0  0
  -26.9380   -8.8670  -28.0130 C   0  0  0  0  0  0  0  0  0  0  0  0
  -27.3670   -8.1690  -29.1240 C   0  0  0  0  0  0  0  0  0  0  0  0
  -29.9990  -10.8470  -27.1180 C   0  0  0  0  0  0  0  0  0  0  0  0
  1  2  2  0
  1  6  1  0
  1  3  1  0
  2  4  1  0
  3 10  1  0
  4  5  2  0
  5  6  1  0
  6  7  1  0
  7  9  1  0
  7  8  2  0
 10 15  1  0
 10 11  2  0
 11 12  1  0
 12 13  2  0
 12 16  1  0
 13 14  1  0
 14 15  2  0
M  END
>  <name>  (598) 
Car Nac Nd0 Car Nac Nac Cs2 .=O Cs3 Car Car Car Car Car Car Cs3

>  <indices>  (598) 
[0, 1, 2]

>  <tasks>  (598) 
probe_placing close_aromatic_ring close_aromatic_ring close_aromatic_ring ring_built build_to_Nac build_DB_to_Cs2 build_SB_to_Cs2 build_to_Nd0 close_aromatic_ring close_aromatic_ring close_aromatic_ring close_aromatic_ring close_aromatic_ring

>  <prot_clashes>  (598) 
3

>  <NBS phar>  (598) 
0.22000000000000003

>  <NBS_non-phar>  (598) 
0.4861198663711548

>  <NBS>  (598) 
0.7061198663711548

>  <source_stage>  (598) 
scored

>  <source_iter>  (598) 
13

>  <source_parent_mol>  (598) 
0

>  <source_scenario>  (598) 
1 2 3 1 7 1 0 4 2 2 2 1 0

>  <source_rank_in_scored_call>  (598) 
23

>  <source_current_task>  (598) 
no_task

>  <scenario>  (598) 
1 2 3 1 7 1 0 4 2 2 2 1

>  <protected_ring_attachments>  (598) 
3,1,0,2|1,0,2;4,5,0,2|5,0,2;11,10,9,2|10,9,2;13,14,9,2|14,9,2

>  <current_task>  (598) 
no_task

>  <rotatable_bond_torsions>  (598) 
1,0,2,9;0,2,9,10;0,5,6,8

$$$$

     RDKit          3D

 16 17  0  0  0  0  0  0  0  0999 V2000
  -28.5290   -6.3350  -31.0840 C   0  0  0  0  0  0  0  0  0  0  0  0
  -27.8250   -6.4050  -32.2500 N   0  0  0  0  0  0  0  0  0  0  0  0
  -29.1850   -7.5620  -30.5170 N   0  0  0  0  0  0  0  0  0  0  0  0
  -27.3140   -5.1900  -32.5130 C   0  0  0  0  0  0  0  0  0  0  0  0
  -27.7140   -4.3730  -31.4970 N   0  0  0  0  0  0  0  0  0  0  0  0
  -28.4420   -5.0650  -30.6410 N   0  0  0  0  0  0  0  0  0  0  0  0
  -28.9860   -4.5580  -29.4800 C   0  0  0  0  0  0  0  0  0  0  0  0
  -29.7040   -5.1780  -28.7120 O   0  0  0  0  0  0  0  0  0  0  0  0
  -28.5980   -3.1540  -28.9670 C   0  0  0  0  0  0  0  0  0  0  0  0
  -28.6660   -8.2520  -29.4900 C   0  0  0  0  0  0  0  0  0  0  0  0
  -29.5400   -9.0710  -28.7700 C   0  0  0  0  0  0  0  0  0  0  0  0
  -29.0700   -9.7450  -27.6430 C   0  0  0  0  0  0  0  0  0  0  0  0
  -27.7610   -9.6230  -27.2210 C   0  0  0  0  0  0  0  0  0  0  0  0
  -26.9150   -8.8080  -27.9450 C   0  0  0  0  0  0  0  0  0  0  0  0
  -27.3590   -8.1310  -29.0640 C   0  0  0  0  0  0  0  0  0  0  0  0
  -29.1860   -2.8080  -27.6360 C   0  0  0  0  0  0  0  0  0  0  0  0
  1  2  2  0
  1  6  1  0
  1  3  1  0
  2  4  1  0
  3 10  1  0
  4  5  2  0
  5  6  1  0
  6  7  1  0
  7  9  1  0
  7  8  2  0
 10 15  1  0
 10 11  2  0
 11 12  1  0
 12 13  2  0
 13 14  1  0
 14 15  2  0
  9 16  1  0
M  END
>  <name>  (599) 
Car Nac Nd0 Car Nac Nac Cs2 .=O Cs3 Car Car Car Car Car Car Cs3

>  <indices>  (599) 
[0, 1, 2]

>  <tasks>  (599) 
probe_placing close_aromatic_ring close_aromatic_ring close_aromatic_ring ring_built build_to_Nac build_DB_to_Cs2 build_SB_to_Cs2 build_to_Nd0 close_aromatic_ring close_aromatic_ring close_aromatic_ring close_aromatic_ring close_aromatic_ring

>  <prot_clashes>  (599) 
4

>  <NBS phar>  (599) 
0.22000000000000003

>  <NBS_non-phar>  (599) 
0.47806328535079956

>  <NBS>  (599) 
0.6980632853507995

>  <source_stage>  (599) 
scored

>  <source_iter>  (599) 
13

>  <source_parent_mol>  (599) 
0

>  <source_scenario>  (599) 
1 2 3 1 7 1 0 4 2 2 2 1 0

>  <source_rank_in_scored_call>  (599) 
32

>  <source_current_task>  (599) 
no_task

>  <scenario>  (599) 
1 2 3 1 7 1 0 4 2 2 2 1

>  <protected_ring_attachments>  (599) 
3,1,0,2|1,0,2;4,5,0,2|5,0,2;11,10,9,2|10,9,2;13,14,9,2|14,9,2

>  <current_task>  (599) 
no_task

>  <rotatable_bond_torsions>  (599) 
1,0,2,9;0,2,9,10;0,5,6,8

$$$$

     RDKit          3D

 16 17  0  0  0  0  0  0  0  0999 V2000
  -28.4880   -6.2840  -31.0360 C   0  0  0  0  0  0  0  0  0  0  0  0
  -27.8950   -6.3430  -32.2620 N   0  0  0  0  0  0  0  0  0  0  0  0
  -29.1900   -7.4860  -30.4720 N   0  0  0  0  0  0  0  0  0  0  0  0
  -27.3110   -5.1580  -32.5120 C   0  0  0  0  0  0  0  0  0  0  0  0
  -27.5550   -4.3710  -31.4250 N   0  0  0  0  0  0  0  0  0  0  0  0
  -28.2600   -5.0510  -30.5410 N   0  0  0  0  0  0  0  0  0  0  0  0
  -28.6580   -4.5690  -29.3120 C   0  0  0  0  0  0  0  0  0  0  0  0
  -29.3560   -5.1740  -28.5140 O   0  0  0  0  0  0  0  0  0  0  0  0
  -28.1150   -3.2290  -28.7690 C   0  0  0  0  0  0  0  0  0  0  0  0
  -28.6420   -8.2700  -29.5300 C   0  0  0  0  0  0  0  0  0  0  0  0
  -29.5150   -9.0590  -28.7750 C   0  0  0  0  0  0  0  0  0  0  0  0
  -29.0060   -9.8280  -27.7290 C   0  0  0  0  0  0  0  0  0  0  0  0
  -27.6600   -9.8300  -27.4210 C   0  0  0  0  0  0  0  0  0  0  0  0
  -26.8160   -9.0440  -28.1790 C   0  0  0  0  0  0  0  0  0  0  0  0
  -27.2980   -8.2730  -29.2190 C   0  0  0  0  0  0  0  0  0  0  0  0
  -29.1880   -2.2910  -28.2800 C   0  0  0  0  0  0  0  0  0  0  0  0
  1  2  2  0
  1  6  1  0
  1  3  1  0
  2  4  1  0
  3 10  1  0
  4  5  2  0
  5  6  1  0
  6  7  1  0
  7  9  1  0
  7  8  2  0
 10 15  1  0
 10 11  2  0
 11 12  1  0
 12 13  2  0
 13 14  1  0
 14 15  2  0
  9 16  1  0
M  END
>  <name>  (600) 
Car Nac Nd0 Car Nac Nac Cs2 .=O Cs3 Car Car Car Car Car Car Cs3

>  <indices>  (600) 
[0, 1, 2]

>  <tasks>  (600) 
probe_placing close_aromatic_ring close_aromatic_ring close_aromatic_ring ring_built build_to_Nac build_DB_to_Cs2 build_SB_to_Cs2 build_to_Nd0 close_aromatic_ring close_aromatic_ring close_aromatic_ring close_aromatic_ring close_aromatic_ring

>  <prot_clashes>  (600) 
4

>  <NBS phar>  (600) 
0.24000000000000005

>  <NBS_non-phar>  (600) 
0.45176148414611816

>  <NBS>  (600) 
0.6917614841461182

>  <source_stage>  (600) 
scored

>  <source_iter>  (600) 
13

>  <source_parent_mol>  (600) 
0

>  <source_scenario>  (600) 
1 2 3 1 7 1 0 4 2 2 2 1 0

>  <source_rank_in_scored_call>  (600) 
36

>  <source_current_task>  (600) 
no_task

>  <scenario>  (600) 
1 2 3 1 7 1 0 4 2 2 2 1

>  <protected_ring_attachments>  (600) 
3,1,0,2|1,0,2;4,5,0,2|5,0,2;11,10,9,2|10,9,2;13,14,9,2|14,9,2

>  <current_task>  (600) 
no_task

>  <rotatable_bond_torsions>  (600) 
1,0,2,9;0,2,9,10;0,5,6,8

$$$$

     RDKit          3D

 16 17  0  0  0  0  0  0  0  0999 V2000
  -28.5350   -6.3320  -31.1290 C   0  0  0  0  0  0  0  0  0  0  0  0
  -27.8160   -6.3660  -32.2870 N   0  0  0  0  0  0  0  0  0  0  0  0
  -29.1870   -7.5790  -30.6020 N   0  0  0  0  0  0  0  0  0  0  0  0
  -27.3130   -5.1390  -32.5130 C   0  0  0  0  0  0  0  0  0  0  0  0
  -27.7330   -4.3530  -31.4810 N   0  0  0  0  0  0  0  0  0  0  0  0
  -28.4650   -5.0730  -30.6520 N   0  0  0  0  0  0  0  0  0  0  0  0
  -29.0270   -4.6010  -29.4850 C   0  0  0  0  0  0  0  0  0  0  0  0
  -29.7500   -5.2470  -28.7430 O   0  0  0  0  0  0  0  0  0  0  0  0
  -28.6580   -3.2070  -28.9320 C   0  0  0  0  0  0  0  0  0  0  0  0
  -28.6750   -8.2910  -29.5870 C   0  0  0  0  0  0  0  0  0  0  0  0
  -29.5500   -9.1360  -28.8990 C   0  0  0  0  0  0  0  0  0  0  0  0
  -29.0880   -9.8350  -27.7840 C   0  0  0  0  0  0  0  0  0  0  0  0
  -27.7850   -9.7120  -27.3420 C   0  0  0  0  0  0  0  0  0  0  0  0
  -26.9370   -8.8710  -28.0350 C   0  0  0  0  0  0  0  0  0  0  0  0
  -27.3740   -8.1690  -29.1410 C   0  0  0  0  0  0  0  0  0  0  0  0
  -29.1870   -2.0500  -29.8350 C   0  0  0  0  0  0  0  0  0  0  0  0
  1  2  2  0
  1  6  1  0
  1  3  1  0
  2  4  1  0
  3 10  1  0
  4  5  2  0
  5  6  1  0
  6  7  1  0
  7  9  1  0
  7  8  2  0
 10 15  1  0
 10 11  2  0
 11 12  1  0
 12 13  2  0
 13 14  1  0
 14 15  2  0
  9 16  1  0
M  END
>  <name>  (601) 
Car Nac Nd0 Car Nac Nac Cs2 .=O Cs3 Car Car Car Car Car Car Cs3

>  <indices>  (601) 
[0, 1, 2]

>  <tasks>  (601) 
probe_placing close_aromatic_ring close_aromatic_ring close_aromatic_ring ring_built build_to_Nac build_DB_to_Cs2 build_SB_to_Cs2 build_to_Nd0 close_aromatic_ring close_aromatic_ring close_aromatic_ring close_aromatic_ring close_aromatic_ring

>  <prot_clashes>  (601) 
4

>  <NBS phar>  (601) 
0.22000000000000003

>  <NBS_non-phar>  (601) 
0.4632689356803894

>  <NBS>  (601) 
0.6832689356803894

>  <source_stage>  (601) 
scored

>  <source_iter>  (601) 
13

>  <source_parent_mol>  (601) 
0

>  <source_scenario>  (601) 
1 2 3 1 7 1 0 4 2 2 2 1 0

>  <source_rank_in_scored_call>  (601) 
53

>  <source_current_task>  (601) 
no_task

>  <scenario>  (601) 
1 2 3 1 7 1 0 4 2 2 2 1

>  <protected_ring_attachments>  (601) 
3,1,0,2|1,0,2;4,5,0,2|5,0,2;11,10,9,2|10,9,2;13,14,9,2|14,9,2

>  <current_task>  (601) 
no_task

>  <rotatable_bond_torsions>  (601) 
1,0,2,9;0,2,9,10;0,5,6,8

$$$$

     RDKit          3D

 16 17  0  0  0  0  0  0  0  0999 V2000
  -28.5350   -6.3260  -31.1280 C   0  0  0  0  0  0  0  0  0  0  0  0
  -27.8050   -6.3420  -32.2790 N   0  0  0  0  0  0  0  0  0  0  0  0
  -29.1780   -7.5840  -30.6160 N   0  0  0  0  0  0  0  0  0  0  0  0
  -27.3140   -5.1080  -32.4910 C   0  0  0  0  0  0  0  0  0  0  0  0
  -27.7540   -4.3350  -31.4560 N   0  0  0  0  0  0  0  0  0  0  0  0
  -28.4850   -5.0700  -30.6410 N   0  0  0  0  0  0  0  0  0  0  0  0
  -29.0640   -4.6130  -29.4750 C   0  0  0  0  0  0  0  0  0  0  0  0
  -29.7860   -5.2740  -28.7450 O   0  0  0  0  0  0  0  0  0  0  0  0
  -28.7170   -3.2200  -28.9080 C   0  0  0  0  0  0  0  0  0  0  0  0
  -28.6670   -8.2980  -29.6020 C   0  0  0  0  0  0  0  0  0  0  0  0
  -29.5380   -9.1590  -28.9290 C   0  0  0  0  0  0  0  0  0  0  0  0
  -29.0790   -9.8610  -27.8150 C   0  0  0  0  0  0  0  0  0  0  0  0
  -27.7830   -9.7260  -27.3600 C   0  0  0  0  0  0  0  0  0  0  0  0
  -26.9380   -8.8700  -28.0380 C   0  0  0  0  0  0  0  0  0  0  0  0
  -27.3720   -8.1650  -29.1430 C   0  0  0  0  0  0  0  0  0  0  0  0
  -29.1790   -2.1240  -29.8880 C   0  0  0  0  0  0  0  0  0  0  0  0
  1  2  2  0
  1  6  1  0
  1  3  1  0
  2  4  1  0
  3 10  1  0
  4  5  2  0
  5  6  1  0
  6  7  1  0
  7  9  1  0
  7  8  2  0
 10 15  1  0
 10 11  2  0
 11 12  1  0
 12 13  2  0
 13 14  1  0
 14 15  2  0
  9 16  1  0
M  END
>  <name>  (602) 
Car Nac Nd0 Car Nac Nac Cs2 .=O Cs3 Car Car Car Car Car Car Cs3

>  <indices>  (602) 
[0, 1, 2]

>  <tasks>  (602) 
probe_placing close_aromatic_ring close_aromatic_ring close_aromatic_ring ring_built build_to_Nac build_DB_to_Cs2 build_SB_to_Cs2 build_to_Nd0 close_aromatic_ring close_aromatic_ring close_aromatic_ring close_aromatic_ring close_aromatic_ring

>  <prot_clashes>  (602) 
3

>  <NBS phar>  (602) 
0.22000000000000003

>  <NBS_non-phar>  (602) 
0.45756664872169495

>  <NBS>  (602) 
0.6775666487216949

>  <source_stage>  (602) 
scored

>  <source_iter>  (602) 
13

>  <source_parent_mol>  (602) 
0

>  <source_scenario>  (602) 
1 2 3 1 7 1 0 4 2 2 2 1 0

>  <source_rank_in_scored_call>  (602) 
63

>  <source_current_task>  (602) 
no_task

>  <scenario>  (602) 
1 2 3 1 7 1 0 4 2 2 2 1

>  <protected_ring_attachments>  (602) 
3,1,0,2|1,0,2;4,5,0,2|5,0,2;11,10,9,2|10,9,2;13,14,9,2|14,9,2

>  <current_task>  (602) 
no_task

>  <rotatable_bond_torsions>  (602) 
1,0,2,9;0,2,9,10;0,5,6,8

$$$$

     RDKit          3D

 16 17  0  0  0  0  0  0  0  0999 V2000
  -28.5010   -6.3000  -31.0450 C   0  0  0  0  0  0  0  0  0  0  0  0
  -27.8740   -6.3680  -32.2540 N   0  0  0  0  0  0  0  0  0  0  0  0
  -29.1870   -7.5100  -30.4760 N   0  0  0  0  0  0  0  0  0  0  0  0
  -27.3150   -5.1720  -32.5120 C   0  0  0  0  0  0  0  0  0  0  0  0
  -27.6080   -4.3710  -31.4480 N   0  0  0  0  0  0  0  0  0  0  0  0
  -28.3180   -5.0530  -30.5690 N   0  0  0  0  0  0  0  0  0  0  0  0
  -28.7620   -4.5570  -29.3610 C   0  0  0  0  0  0  0  0  0  0  0  0
  -29.4650   -5.1650  -28.5690 O   0  0  0  0  0  0  0  0  0  0  0  0
  -28.2690   -3.1930  -28.8310 C   0  0  0  0  0  0  0  0  0  0  0  0
  -28.6440   -8.2610  -29.5050 C   0  0  0  0  0  0  0  0  0  0  0  0
  -29.5150   -9.0580  -28.7570 C   0  0  0  0  0  0  0  0  0  0  0  0
  -29.0150   -9.7930  -27.6820 C   0  0  0  0  0  0  0  0  0  0  0  0
  -27.6780   -9.7530  -27.3400 C   0  0  0  0  0  0  0  0  0  0  0  0
  -26.8340   -8.9590  -28.0910 C   0  0  0  0  0  0  0  0  0  0  0  0
  -27.3080   -8.2220  -29.1580 C   0  0  0  0  0  0  0  0  0  0  0  0
  -29.1890   -2.4920  -27.8590 C   0  0  0  0  0  0  0  0  0  0  0  0
  1  2  2  0
  1  6  1  0
  1  3  1  0
  2  4  1  0
  3 10  1  0
  4  5  2  0
  5  6  1  0
  6  7  1  0
  7  9  1  0
  7  8  2  0
 10 15  1  0
 10 11  2  0
 11 12  1  0
 12 13  2  0
 13 14  1  0
 14 15  2  0
  9 16  1  0
M  END
>  <name>  (603) 
Car Nac Nd0 Car Nac Nac Cs2 .=O Cs3 Car Car Car Car Car Car Cs3

>  <indices>  (603) 
[0, 1, 2]

>  <tasks>  (603) 
probe_placing close_aromatic_ring close_aromatic_ring close_aromatic_ring ring_built build_to_Nac build_DB_to_Cs2 build_SB_to_Cs2 build_to_Nd0 close_aromatic_ring close_aromatic_ring close_aromatic_ring close_aromatic_ring close_aromatic_ring

>  <prot_clashes>  (603) 
6

>  <NBS phar>  (603) 
0.24000000000000005

>  <NBS_non-phar>  (603) 
0.4362049698829651

>  <NBS>  (603) 
0.6762049698829651

>  <source_stage>  (603) 
scored

>  <source_iter>  (603) 
13

>  <source_parent_mol>  (603) 
0

>  <source_scenario>  (603) 
1 2 3 1 7 1 0 4 2 2 2 1 0

>  <source_rank_in_scored_call>  (603) 
64

>  <source_current_task>  (603) 
no_task

>  <scenario>  (603) 
1 2 3 1 7 1 0 4 2 2 2 1

>  <protected_ring_attachments>  (603) 
3,1,0,2|1,0,2;4,5,0,2|5,0,2;11,10,9,2|10,9,2;13,14,9,2|14,9,2

>  <current_task>  (603) 
no_task

>  <rotatable_bond_torsions>  (603) 
1,0,2,9;0,2,9,10;0,5,6,8

$$$$

     RDKit          3D

 16 17  0  0  0  0  0  0  0  0999 V2000
  -28.5350   -6.3040  -31.1360 C   0  0  0  0  0  0  0  0  0  0  0  0
  -27.8140   -6.3340  -32.2930 N   0  0  0  0  0  0  0  0  0  0  0  0
  -29.1860   -7.5540  -30.6140 N   0  0  0  0  0  0  0  0  0  0  0  0
  -27.3130   -5.1050  -32.5140 C   0  0  0  0  0  0  0  0  0  0  0  0
  -27.7370   -4.3230  -31.4810 N   0  0  0  0  0  0  0  0  0  0  0  0
  -28.4680   -5.0470  -30.6560 N   0  0  0  0  0  0  0  0  0  0  0  0
  -29.0340   -4.5790  -29.4880 C   0  0  0  0  0  0  0  0  0  0  0  0
  -29.7570   -5.2290  -28.7490 O   0  0  0  0  0  0  0  0  0  0  0  0
  -28.6690   -3.1860  -28.9300 C   0  0  0  0  0  0  0  0  0  0  0  0
  -28.6740   -8.2680  -29.6000 C   0  0  0  0  0  0  0  0  0  0  0  0
  -29.5490   -9.1170  -28.9160 C   0  0  0  0  0  0  0  0  0  0  0  0
  -29.0880   -9.8180  -27.8020 C   0  0  0  0  0  0  0  0  0  0  0  0
  -27.7870   -9.6940  -27.3580 C   0  0  0  0  0  0  0  0  0  0  0  0
  -26.9390   -8.8490  -28.0460 C   0  0  0  0  0  0  0  0  0  0  0  0
  -27.3750   -8.1450  -29.1510 C   0  0  0  0  0  0  0  0  0  0  0  0
  -29.1880   -2.1130  -29.8820 C   0  0  0  0  0  0  0  0  0  0  0  0
  1  2  2  0
  1  6  1  0
  1  3  1  0
  2  4  1  0
  3 10  1  0
  4  5  2  0
  5  6  1  0
  6  7  1  0
  7  9  1  0
  7  8  2  0
 10 15  1  0
 10 11  2  0
 11 12  1  0
 12 13  2  0
 13 14  1  0
 14 15  2  0
  9 16  1  0
M  END
>  <name>  (604) 
Car Nac Nd0 Car Nac Nac Cs2 .=O Cs3 Car Car Car Car Car Car Cs3

>  <indices>  (604) 
[0, 1, 2]

>  <tasks>  (604) 
probe_placing close_aromatic_ring close_aromatic_ring close_aromatic_ring ring_built build_to_Nac build_DB_to_Cs2 build_SB_to_Cs2 build_to_Nd0 close_aromatic_ring close_aromatic_ring close_aromatic_ring close_aromatic_ring close_aromatic_ring

>  <prot_clashes>  (604) 
4

>  <NBS phar>  (604) 
0.22000000000000003

>  <NBS_non-phar>  (604) 
0.45514529943466187

>  <NBS>  (604) 
0.6751452994346618

>  <source_stage>  (604) 
scored

>  <source_iter>  (604) 
13

>  <source_parent_mol>  (604) 
0

>  <source_scenario>  (604) 
1 2 3 1 7 1 0 4 2 2 2 1 0

>  <source_rank_in_scored_call>  (604) 
68

>  <source_current_task>  (604) 
no_task

>  <scenario>  (604) 
1 2 3 1 7 1 0 4 2 2 2 1

>  <protected_ring_attachments>  (604) 
3,1,0,2|1,0,2;4,5,0,2|5,0,2;11,10,9,2|10,9,2;13,14,9,2|14,9,2

>  <current_task>  (604) 
no_task

>  <rotatable_bond_torsions>  (604) 
1,0,2,9;0,2,9,10;0,5,6,8

$$$$

     RDKit          3D

 16 17  0  0  0  0  0  0  0  0999 V2000
  -28.5100   -6.3010  -31.0720 C   0  0  0  0  0  0  0  0  0  0  0  0
  -27.8350   -6.3590  -32.2560 N   0  0  0  0  0  0  0  0  0  0  0  0
  -29.1680   -7.5300  -30.5110 N   0  0  0  0  0  0  0  0  0  0  0  0
  -27.3140   -5.1460  -32.5100 C   0  0  0  0  0  0  0  0  0  0  0  0
  -27.6800   -4.3430  -31.4690 N   0  0  0  0  0  0  0  0  0  0  0  0
  -28.3950   -5.0410  -30.6090 N   0  0  0  0  0  0  0  0  0  0  0  0
  -28.9050   -4.5480  -29.4260 C   0  0  0  0  0  0  0  0  0  0  0  0
  -29.6130   -5.1730  -28.6520 O   0  0  0  0  0  0  0  0  0  0  0  0
  -28.4860   -3.1580  -28.8980 C   0  0  0  0  0  0  0  0  0  0  0  0
  -28.6340   -8.2450  -29.5100 C   0  0  0  0  0  0  0  0  0  0  0  0
  -29.5010   -9.0660  -28.7840 C   0  0  0  0  0  0  0  0  0  0  0  0
  -29.0140   -9.7660  -27.6800 C   0  0  0  0  0  0  0  0  0  0  0  0
  -27.6930   -9.6680  -27.2880 C   0  0  0  0  0  0  0  0  0  0  0  0
  -26.8540   -8.8510  -28.0180 C   0  0  0  0  0  0  0  0  0  0  0  0
  -27.3150   -8.1480  -29.1130 C   0  0  0  0  0  0  0  0  0  0  0  0
  -29.5520   -2.1030  -28.9660 C   0  0  0  0  0  0  0  0  0  0  0  0
  1  2  2  0
  1  6  1  0
  1  3  1  0
  2  4  1  0
  3 10  1  0
  4  5  2  0
  5  6  1  0
  6  7  1  0
  7  9  1  0
  7  8  2  0
 10 15  1  0
 10 11  2  0
 11 12  1  0
 12 13  2  0
 13 14  1  0
 14 15  2  0
  9 16  1  0
M  END
>  <name>  (605) 
Car Nac Nd0 Car Nac Nac Cs2 .=O Cs3 Car Car Car Car Car Car Cs3

>  <indices>  (605) 
[0, 1, 2]

>  <tasks>  (605) 
probe_placing close_aromatic_ring close_aromatic_ring close_aromatic_ring ring_built build_to_Nac build_DB_to_Cs2 build_SB_to_Cs2 build_to_Nd0 close_aromatic_ring close_aromatic_ring close_aromatic_ring close_aromatic_ring close_aromatic_ring

>  <prot_clashes>  (605) 
6

>  <NBS phar>  (605) 
0.2

>  <NBS_non-phar>  (605) 
0.4518740475177765

>  <NBS>  (605) 
0.6518740475177764

>  <source_stage>  (605) 
scored

>  <source_iter>  (605) 
13

>  <source_parent_mol>  (605) 
0

>  <source_scenario>  (605) 
1 2 3 1 7 1 0 4 2 2 2 1 0

>  <source_rank_in_scored_call>  (605) 
90

>  <source_current_task>  (605) 
no_task

>  <scenario>  (605) 
1 2 3 1 7 1 0 4 2 2 2 1

>  <protected_ring_attachments>  (605) 
3,1,0,2|1,0,2;4,5,0,2|5,0,2;11,10,9,2|10,9,2;13,14,9,2|14,9,2

>  <current_task>  (605) 
no_task

>  <rotatable_bond_torsions>  (605) 
1,0,2,9;0,2,9,10;0,5,6,8

$$$$

     RDKit          3D

 16 17  0  0  0  0  0  0  0  0999 V2000
  -28.4690   -6.3060  -31.0360 C   0  0  0  0  0  0  0  0  0  0  0  0
  -27.7370   -6.3910  -32.1840 N   0  0  0  0  0  0  0  0  0  0  0  0
  -29.0410   -7.5450  -30.4060 N   0  0  0  0  0  0  0  0  0  0  0  0
  -27.3150   -5.1570  -32.5120 C   0  0  0  0  0  0  0  0  0  0  0  0
  -27.7970   -4.3160  -31.5520 N   0  0  0  0  0  0  0  0  0  0  0  0
  -28.4870   -5.0100  -30.6680 N   0  0  0  0  0  0  0  0  0  0  0  0
  -29.0920   -4.4790  -29.5490 C   0  0  0  0  0  0  0  0  0  0  0  0
  -29.7770   -5.1060  -28.7570 O   0  0  0  0  0  0  0  0  0  0  0  0
  -28.8220   -3.0210  -29.1150 C   0  0  0  0  0  0  0  0  0  0  0  0
  -28.4930   -8.1320  -29.3310 C   0  0  0  0  0  0  0  0  0  0  0  0
  -29.3170   -8.9720  -28.5780 C   0  0  0  0  0  0  0  0  0  0  0  0
  -28.8210   -9.5400  -27.4040 C   0  0  0  0  0  0  0  0  0  0  0  0
  -27.5340   -9.2930  -26.9690 C   0  0  0  0  0  0  0  0  0  0  0  0
  -26.7370   -8.4590  -27.7280 C   0  0  0  0  0  0  0  0  0  0  0  0
  -27.2070   -7.8850  -28.8920 C   0  0  0  0  0  0  0  0  0  0  0  0
  -28.7590   -2.9200  -27.6570 C   0  0  0  0  0  0  0  0  0  0  0  0
  1  2  2  0
  1  6  1  0
  1  3  1  0
  2  4  1  0
  3 10  1  0
  4  5  2  0
  5  6  1  0
  6  7  1  0
  7  9  1  0
  7  8  2  0
 10 15  1  0
 10 11  2  0
 11 12  1  0
 12 13  2  0
 13 14  1  0
 14 15  2  0
  9 16  1  0
M  END
>  <name>  (606) 
Car Nac Nd0 Car Nac Nac Cs2 .=O Cs3 Car Car Car Car Car Car Cs3

>  <indices>  (606) 
[0, 1, 2]

>  <tasks>  (606) 
probe_placing close_aromatic_ring close_aromatic_ring close_aromatic_ring ring_built build_to_Nac build_DB_to_Cs2 build_SB_to_Cs2 build_to_Nd0 close_aromatic_ring close_aromatic_ring close_aromatic_ring close_aromatic_ring close_aromatic_ring

>  <prot_clashes>  (606) 
5

>  <NBS phar>  (606) 
0.12

>  <NBS_non-phar>  (606) 
0.5005239844322205

>  <NBS>  (606) 
0.6205239844322205

>  <source_stage>  (606) 
scored

>  <source_iter>  (606) 
13

>  <source_parent_mol>  (606) 
0

>  <source_scenario>  (606) 
1 2 3 1 7 1 0 4 2 2 2 1 0

>  <source_rank_in_scored_call>  (606) 
103

>  <source_current_task>  (606) 
no_task

>  <scenario>  (606) 
1 2 3 1 7 1 0 4 2 2 2 1

>  <protected_ring_attachments>  (606) 
3,1,0,2|1,0,2;4,5,0,2|5,0,2;11,10,9,2|10,9,2;13,14,9,2|14,9,2

>  <current_task>  (606) 
no_task

>  <rotatable_bond_torsions>  (606) 
1,0,2,9;0,2,9,10;0,5,6,8

$$$$

     RDKit          3D

 16 17  0  0  0  0  0  0  0  0999 V2000
  -28.4740   -6.2820  -31.0350 C   0  0  0  0  0  0  0  0  0  0  0  0
  -27.7560   -6.3710  -32.1910 N   0  0  0  0  0  0  0  0  0  0  0  0
  -29.0570   -7.5150  -30.4050 N   0  0  0  0  0  0  0  0  0  0  0  0
  -27.3200   -5.1410  -32.5180 C   0  0  0  0  0  0  0  0  0  0  0  0
  -27.7810   -4.2980  -31.5500 N   0  0  0  0  0  0  0  0  0  0  0  0
  -28.4710   -4.9870  -30.6620 N   0  0  0  0  0  0  0  0  0  0  0  0
  -29.0560   -4.4530  -29.5330 C   0  0  0  0  0  0  0  0  0  0  0  0
  -29.7410   -5.0750  -28.7370 O   0  0  0  0  0  0  0  0  0  0  0  0
  -28.7620   -3.0010  -29.0960 C   0  0  0  0  0  0  0  0  0  0  0  0
  -28.5050   -8.1150  -29.3390 C   0  0  0  0  0  0  0  0  0  0  0  0
  -29.3320   -8.9470  -28.5800 C   0  0  0  0  0  0  0  0  0  0  0  0
  -28.8310   -9.5280  -27.4150 C   0  0  0  0  0  0  0  0  0  0  0  0
  -27.5360   -9.3000  -26.9930 C   0  0  0  0  0  0  0  0  0  0  0  0
  -26.7360   -8.4740  -27.7560 C   0  0  0  0  0  0  0  0  0  0  0  0
  -27.2120   -7.8880  -28.9130 C   0  0  0  0  0  0  0  0  0  0  0  0
  -29.0290   -2.8460  -27.6640 C   0  0  0  0  0  0  0  0  0  0  0  0
  1  2  2  0
  1  6  1  0
  1  3  1  0
  2  4  1  0
  3 10  1  0
  4  5  2  0
  5  6  1  0
  6  7  1  0
  7  9  1  0
  7  8  2  0
 10 15  1  0
 10 11  2  0
 11 12  1  0
 12 13  2  0
 13 14  1  0
 14 15  2  0
  9 16  1  0
M  END
>  <name>  (607) 
Car Nac Nd0 Car Nac Nac Cs2 .=O Cs3 Car Car Car Car Car Car Cs3

>  <indices>  (607) 
[0, 1, 2]

>  <tasks>  (607) 
probe_placing close_aromatic_ring close_aromatic_ring close_aromatic_ring ring_built build_to_Nac build_DB_to_Cs2 build_SB_to_Cs2 build_to_Nd0 close_aromatic_ring close_aromatic_ring close_aromatic_ring close_aromatic_ring close_aromatic_ring

>  <prot_clashes>  (607) 
6

>  <NBS phar>  (607) 
0.12

>  <NBS_non-phar>  (607) 
0.4933002293109894

>  <NBS>  (607) 
0.6133002293109894

>  <source_stage>  (607) 
scored

>  <source_iter>  (607) 
13

>  <source_parent_mol>  (607) 
0

>  <source_scenario>  (607) 
1 2 3 1 7 1 0 4 2 2 2 1 0

>  <source_rank_in_scored_call>  (607) 
106

>  <source_current_task>  (607) 
no_task

>  <scenario>  (607) 
1 2 3 1 7 1 0 4 2 2 2 1

>  <protected_ring_attachments>  (607) 
3,1,0,2|1,0,2;4,5,0,2|5,0,2;11,10,9,2|10,9,2;13,14,9,2|14,9,2

>  <current_task>  (607) 
no_task

>  <rotatable_bond_torsions>  (607) 
1,0,2,9;0,2,9,10;0,5,6,8

$$$$

     RDKit          3D

 16 17  0  0  0  0  0  0  0  0999 V2000
  -28.5120   -6.3460  -31.1140 C   0  0  0  0  0  0  0  0  0  0  0  0
  -27.7700   -6.3840  -32.2580 N   0  0  0  0  0  0  0  0  0  0  0  0
  -29.1200   -7.6030  -30.5600 N   0  0  0  0  0  0  0  0  0  0  0  0
  -27.3160   -5.1440  -32.5130 C   0  0  0  0  0  0  0  0  0  0  0  0
  -27.7900   -4.3460  -31.5140 N   0  0  0  0  0  0  0  0  0  0  0  0
  -28.5060   -5.0710  -30.6770 N   0  0  0  0  0  0  0  0  0  0  0  0
  -29.1110   -4.5880  -29.5360 C   0  0  0  0  0  0  0  0  0  0  0  0
  -29.8200   -5.2420  -28.7860 O   0  0  0  0  0  0  0  0  0  0  0  0
  -28.8140   -3.1630  -29.0200 C   0  0  0  0  0  0  0  0  0  0  0  0
  -28.5970   -8.2610  -29.5140 C   0  0  0  0  0  0  0  0  0  0  0  0
  -29.4490   -9.1220  -28.8160 C   0  0  0  0  0  0  0  0  0  0  0  0
  -28.9790   -9.7640  -27.6700 C   0  0  0  0  0  0  0  0  0  0  0  0
  -27.6920   -9.5710  -27.2090 C   0  0  0  0  0  0  0  0  0  0  0  0
  -26.8680   -8.7160  -27.9130 C   0  0  0  0  0  0  0  0  0  0  0  0
  -27.3120   -8.0680  -29.0480 C   0  0  0  0  0  0  0  0  0  0  0  0
  -27.6700   -3.1530  -28.0160 C   0  0  0  0  0  0  0  0  0  0  0  0
  1  2  2  0
  1  6  1  0
  1  3  1  0
  2  4  1  0
  3 10  1  0
  4  5  2  0
  5  6  1  0
  6  7  1  0
  7  9  1  0
  7  8  2  0
 10 15  1  0
 10 11  2  0
 11 12  1  0
 12 13  2  0
 13 14  1  0
 14 15  2  0
  9 16  1  0
M  END
>  <name>  (608) 
Car Nac Nd0 Car Nac Nac Cs2 .=O Cs3 Car Car Car Car Car Car Cs3

>  <indices>  (608) 
[0, 1, 2]

>  <tasks>  (608) 
probe_placing close_aromatic_ring close_aromatic_ring close_aromatic_ring ring_built build_to_Nac build_DB_to_Cs2 build_SB_to_Cs2 build_to_Nd0 close_aromatic_ring close_aromatic_ring close_aromatic_ring close_aromatic_ring close_aromatic_ring

>  <prot_clashes>  (608) 
4

>  <NBS phar>  (608) 
0.1

>  <NBS_non-phar>  (608) 
0.4882747232913971

>  <NBS>  (608) 
0.5882747232913971

>  <source_stage>  (608) 
scored

>  <source_iter>  (608) 
13

>  <source_parent_mol>  (608) 
0

>  <source_scenario>  (608) 
1 2 3 1 7 1 0 4 2 2 2 1 0

>  <source_rank_in_scored_call>  (608) 
109

>  <source_current_task>  (608) 
no_task

>  <scenario>  (608) 
1 2 3 1 7 1 0 4 2 2 2 1

>  <protected_ring_attachments>  (608) 
3,1,0,2|1,0,2;4,5,0,2|5,0,2;11,10,9,2|10,9,2;13,14,9,2|14,9,2

>  <current_task>  (608) 
no_task

>  <rotatable_bond_torsions>  (608) 
1,0,2,9;0,2,9,10;0,5,6,8

$$$$

     RDKit          3D

 16 17  0  0  0  0  0  0  0  0999 V2000
  -28.3840   -6.4940  -31.0150 C   0  0  0  0  0  0  0  0  0  0  0  0
  -27.6030   -6.4770  -32.1320 N   0  0  0  0  0  0  0  0  0  0  0  0
  -28.8360   -7.7990  -30.4220 N   0  0  0  0  0  0  0  0  0  0  0  0
  -27.3110   -5.1980  -32.4290 C   0  0  0  0  0  0  0  0  0  0  0  0
  -27.9250   -4.4320  -31.4830 N   0  0  0  0  0  0  0  0  0  0  0  0
  -28.5660   -5.2140  -30.6350 N   0  0  0  0  0  0  0  0  0  0  0  0
  -29.2720   -4.7710  -29.5360 C   0  0  0  0  0  0  0  0  0  0  0  0
  -29.9120   -5.4850  -28.7800 O   0  0  0  0  0  0  0  0  0  0  0  0
  -29.1890   -3.2990  -29.0770 C   0  0  0  0  0  0  0  0  0  0  0  0
  -28.2670   -8.3350  -29.3320 C   0  0  0  0  0  0  0  0  0  0  0  0
  -29.0190   -9.2750  -28.6220 C   0  0  0  0  0  0  0  0  0  0  0  0
  -28.5090   -9.8000  -27.4340 C   0  0  0  0  0  0  0  0  0  0  0  0
  -27.2770   -9.4140  -26.9440 C   0  0  0  0  0  0  0  0  0  0  0  0
  -26.5510   -8.4840  -27.6600 C   0  0  0  0  0  0  0  0  0  0  0  0
  -27.0380   -7.9500  -28.8370 C   0  0  0  0  0  0  0  0  0  0  0  0
  -30.3670   -9.7170  -29.1340 C   0  0  0  0  0  0  0  0  0  0  0  0
  1  2  2  0
  1  6  1  0
  1  3  1  0
  2  4  1  0
  3 10  1  0
  4  5  2  0
  5  6  1  0
  6  7  1  0
  7  9  1  0
  7  8  2  0
 10 15  1  0
 10 11  2  0
 11 16  1  0
 11 12  1  0
 12 13  2  0
 13 14  1  0
 14 15  2  0
M  END
>  <name>  (609) 
Car Nac Nd0 Car Nac Nac Cs2 .=O Cs3 Car Car Car Car Car Car Cs3

>  <indices>  (609) 
[0, 1, 2]

>  <tasks>  (609) 
probe_placing close_aromatic_ring close_aromatic_ring close_aromatic_ring ring_built build_to_Nac build_DB_to_Cs2 build_SB_to_Cs2 build_to_Nd0 close_aromatic_ring close_aromatic_ring close_aromatic_ring close_aromatic_ring close_aromatic_ring

>  <prot_clashes>  (609) 
11

>  <NBS phar>  (609) 
0.2

>  <NBS_non-phar>  (609) 
0.367462158203125

>  <NBS>  (609) 
0.567462158203125

>  <source_stage>  (609) 
scored

>  <source_iter>  (609) 
13

>  <source_parent_mol>  (609) 
0

>  <source_scenario>  (609) 
1 2 3 1 7 1 0 4 2 2 2 1 0

>  <source_rank_in_scored_call>  (609) 
115

>  <source_current_task>  (609) 
no_task

>  <scenario>  (609) 
1 2 3 1 7 1 0 4 2 2 2 1

>  <protected_ring_attachments>  (609) 
3,1,0,2|1,0,2;4,5,0,2|5,0,2;11,10,9,2|10,9,2;13,14,9,2|14,9,2

>  <current_task>  (609) 
no_task

>  <rotatable_bond_torsions>  (609) 
1,0,2,9;0,2,9,10;0,5,6,8

$$$$

     RDKit          3D

 16 17  0  0  0  0  0  0  0  0999 V2000
  -28.4380   -6.2920  -31.0200 C   0  0  0  0  0  0  0  0  0  0  0  0
  -27.7320   -6.3720  -32.1840 N   0  0  0  0  0  0  0  0  0  0  0  0
  -29.0010   -7.5320  -30.3860 N   0  0  0  0  0  0  0  0  0  0  0  0
  -27.3130   -5.1370  -32.5140 C   0  0  0  0  0  0  0  0  0  0  0  0
  -27.7720   -4.3000  -31.5400 N   0  0  0  0  0  0  0  0  0  0  0  0
  -28.4450   -4.9980  -30.6450 N   0  0  0  0  0  0  0  0  0  0  0  0
  -29.0240   -4.4710  -29.5100 C   0  0  0  0  0  0  0  0  0  0  0  0
  -29.6930   -5.1010  -28.7060 O   0  0  0  0  0  0  0  0  0  0  0  0
  -28.7410   -3.0170  -29.0740 C   0  0  0  0  0  0  0  0  0  0  0  0
  -28.4300   -8.1270  -29.3260 C   0  0  0  0  0  0  0  0  0  0  0  0
  -29.2400   -8.9690  -28.5600 C   0  0  0  0  0  0  0  0  0  0  0  0
  -28.7200   -9.5460  -27.4010 C   0  0  0  0  0  0  0  0  0  0  0  0
  -27.4230   -9.3050  -26.9930 C   0  0  0  0  0  0  0  0  0  0  0  0
  -26.6410   -8.4680  -27.7640 C   0  0  0  0  0  0  0  0  0  0  0  0
  -27.1350   -7.8860  -28.9140 C   0  0  0  0  0  0  0  0  0  0  0  0
  -27.9420   -2.9240  -27.8020 C   0  0  0  0  0  0  0  0  0  0  0  0
  1  2  2  0
  1  6  1  0
  1  3  1  0
  2  4  1  0
  3 10  1  0
  4  5  2  0
  5  6  1  0
  6  7  1  0
  7  9  1  0
  7  8  2  0
 10 15  1  0
 10 11  2  0
 11 12  1  0
 12 13  2  0
 13 14  1  0
 14 15  2  0
  9 16  1  0
M  END
>  <name>  (610) 
Car Nac Nd0 Car Nac Nac Cs2 .=O Cs3 Car Car Car Car Car Car Cs3

>  <indices>  (610) 
[0, 1, 2]

>  <tasks>  (610) 
probe_placing close_aromatic_ring close_aromatic_ring close_aromatic_ring ring_built build_to_Nac build_DB_to_Cs2 build_SB_to_Cs2 build_to_Nd0 close_aromatic_ring close_aromatic_ring close_aromatic_ring close_aromatic_ring close_aromatic_ring

>  <prot_clashes>  (610) 
4

>  <NBS phar>  (610) 
0.1

>  <NBS_non-phar>  (610) 
0.4476500153541565

>  <NBS>  (610) 
0.5476500153541565

>  <source_stage>  (610) 
scored

>  <source_iter>  (610) 
13

>  <source_parent_mol>  (610) 
0

>  <source_scenario>  (610) 
1 2 3 1 7 1 0 4 2 2 2 1 0

>  <source_rank_in_scored_call>  (610) 
125

>  <source_current_task>  (610) 
no_task

>  <scenario>  (610) 
1 2 3 1 7 1 0 4 2 2 2 1

>  <protected_ring_attachments>  (610) 
3,1,0,2|1,0,2;4,5,0,2|5,0,2;11,10,9,2|10,9,2;13,14,9,2|14,9,2

>  <current_task>  (610) 
no_task

>  <rotatable_bond_torsions>  (610) 
1,0,2,9;0,2,9,10;0,5,6,8

$$$$

     RDKit          3D

 16 17  0  0  0  0  0  0  0  0999 V2000
  -28.5360   -6.0170  -30.6730 C   0  0  0  0  0  0  0  0  0  0  0  0
  -27.7560   -5.8640  -31.7810 N   0  0  0  0  0  0  0  0  0  0  0  0
  -29.1270   -7.3580  -30.3380 N   0  0  0  0  0  0  0  0  0  0  0  0
  -27.3280   -4.5900  -31.8280 C   0  0  0  0  0  0  0  0  0  0  0  0
  -27.8570   -3.9640  -30.7380 N   0  0  0  0  0  0  0  0  0  0  0  0
  -28.5790   -4.8250  -30.0470 N   0  0  0  0  0  0  0  0  0  0  0  0
  -29.2350   -4.5350  -28.8680 C   0  0  0  0  0  0  0  0  0  0  0  0
  -29.9480   -5.3110  -28.2530 O   0  0  0  0  0  0  0  0  0  0  0  0
  -28.9930   -3.1990  -28.1320 C   0  0  0  0  0  0  0  0  0  0  0  0
  -28.6200   -8.1560  -29.3850 C   0  0  0  0  0  0  0  0  0  0  0  0
  -29.4700   -9.1320  -28.8570 C   0  0  0  0  0  0  0  0  0  0  0  0
  -29.0200   -9.9310  -27.8060 C   0  0  0  0  0  0  0  0  0  0  0  0
  -27.7540   -9.7820  -27.2750 C   0  0  0  0  0  0  0  0  0  0  0  0
  -26.9320   -8.8110  -27.8100 C   0  0  0  0  0  0  0  0  0  0  0  0
  -27.3570   -8.0080  -28.8500 C   0  0  0  0  0  0  0  0  0  0  0  0
  -26.4400   -3.9740  -32.8810 C   0  0  0  0  0  0  0  0  0  0  0  0
  1  2  2  0
  1  3  1  0
  1  6  1  0
  2  4  1  0
  3 10  1  0
  4 16  1  0
  4  5  2  0
  5  6  1  0
  6  7  1  0
  7  8  2  0
  7  9  1  0
 10 11  2  0
 10 15  1  0
 11 12  1  0
 12 13  2  0
 13 14  1  0
 14 15  2  0
M  END
>  <name>  (611) 
Car Nac Nd0 Car Nac Nac Cs2 .=O Cs3 Car Car Car Car Car Car Cs3

>  <indices>  (611) 
[0, 1, 2]

>  <tasks>  (611) 
probe_placing close_aromatic_ring close_aromatic_ring close_aromatic_ring ring_built build_to_Nac build_DB_to_Cs2 build_SB_to_Cs2 build_to_Nd0 close_aromatic_ring close_aromatic_ring close_aromatic_ring close_aromatic_ring close_aromatic_ring

>  <prot_clashes>  (611) 
6

>  <NBS phar>  (611) 
0.02

>  <NBS_non-phar>  (611) 
0.46633490920066833

>  <NBS>  (611) 
0.48633490920066835

>  <source_stage>  (611) 
scored

>  <source_iter>  (611) 
13

>  <source_parent_mol>  (611) 
0

>  <source_scenario>  (611) 
1 2 3 1 7 1 0 4 2 2 2 1 0

>  <source_rank_in_scored_call>  (611) 
135

>  <source_current_task>  (611) 
no_task

>  <scenario>  (611) 
1 2 3 1 7 1 0 4 2 2 2 1

>  <protected_ring_attachments>  (611) 
3,1,0,2|1,0,2;4,5,0,2|5,0,2;11,10,9,2|10,9,2;13,14,9,2|14,9,2

>  <current_task>  (611) 
no_task

>  <rotatable_bond_torsions>  (611) 
1,0,2,9;0,2,9,10;0,5,6,8

$$$$

     RDKit          3D

 16 17  0  0  0  0  0  0  0  0999 V2000
  -28.5110   -5.9910  -30.8170 C   0  0  0  0  0  0  0  0  0  0  0  0
  -27.8510   -6.0790  -32.0080 N   0  0  0  0  0  0  0  0  0  0  0  0
  -29.0150   -7.2310  -30.1350 N   0  0  0  0  0  0  0  0  0  0  0  0
  -27.4800   -4.8420  -32.3810 C   0  0  0  0  0  0  0  0  0  0  0  0
  -27.9200   -3.9960  -31.4070 N   0  0  0  0  0  0  0  0  0  0  0  0
  -28.5390   -4.6910  -30.4710 N   0  0  0  0  0  0  0  0  0  0  0  0
  -29.0850   -4.1510  -29.3230 C   0  0  0  0  0  0  0  0  0  0  0  0
  -29.7040   -4.7800  -28.4800 O   0  0  0  0  0  0  0  0  0  0  0  0
  -28.8220   -2.6800  -28.9330 C   0  0  0  0  0  0  0  0  0  0  0  0
  -28.3440   -7.8230  -29.0740 C   0  0  0  0  0  0  0  0  0  0  0  0
  -28.8730   -7.7870  -27.8110 C   0  0  0  0  0  0  0  0  0  0  0  0
  -28.2410   -8.4360  -26.7760 C   0  0  0  0  0  0  0  0  0  0  0  0
  -27.0760   -9.1290  -26.9720 C   0  0  0  0  0  0  0  0  0  0  0  0
  -26.5490   -9.1600  -28.2470 C   0  0  0  0  0  0  0  0  0  0  0  0
  -27.1700   -8.5110  -29.3190 C   0  0  0  0  0  0  0  0  0  0  0  0
  -26.5760   -8.5600  -30.7050 C   0  0  0  0  0  0  0  0  0  0  0  0
  1  2  2  0
  1  6  1  0
  1  3  1  0
  2  4  1  0
  3 10  1  0
  4  5  2  0
  5  6  1  0
  6  7  1  0
  7  9  1  0
  7  8  2  0
 10 15  1  0
 10 11  2  0
 11 12  1  0
 12 13  2  0
 13 14  1  0
 14 15  2  0
 15 16  1  0
M  END
>  <name>  (612) 
Car Nac Nd0 Car Nac Nac Cs2 .=O Cs3 Car Car Car Car Car Car Cs3

>  <indices>  (612) 
[0, 1, 2]

>  <tasks>  (612) 
probe_placing close_aromatic_ring close_aromatic_ring close_aromatic_ring ring_built build_to_Nac build_DB_to_Cs2 build_SB_to_Cs2 build_to_Nd0 close_aromatic_ring close_aromatic_ring close_aromatic_ring close_aromatic_ring close_aromatic_ring

>  <prot_clashes>  (612) 
10

>  <NBS phar>  (612) 
0.22000000000000003

>  <NBS_non-phar>  (612) 
0.3821970820426941

>  <NBS>  (612) 
0.6021970820426941

>  <source_stage>  (612) 
scored

>  <source_iter>  (612) 
13

>  <source_parent_mol>  (612) 
0

>  <source_scenario>  (612) 
1 2 3 1 7 1 0 4 3 0 1 1 0

>  <source_rank_in_scored_call>  (612) 
7

>  <source_current_task>  (612) 
build_orthosubstituent_to_rotated_aniline_Nd0

>  <scenario>  (612) 
1 2 3 1 7 1 0 4 3 0 1 1

>  <protected_ring_attachments>  (612) 
3,1,0,2|1,0,2;4,5,0,2|5,0,2;11,10,9,2|10,9,2;13,14,9,2|14,9,2

>  <current_task>  (612) 
no_task

>  <rotatable_bond_torsions>  (612) 
1,0,2,9;0,2,9,10;0,5,6,8

>  <rotated_aniline_Nd0_dihedral>  (612) 
110.51

>  <rotated_aniline_Nd0_tolerance>  (612) 
60.0

>  <rotated_aniline_Nd0_context>  (612) 
diarylamine

>  <rotated_aniline_Nd0_substituent_idx>  (612) 
0

>  <rotated_aniline_Nd0_ring>  (612) 
10 11 12 13 14 9

>  <flag ortho>  (612) 


$$$$

     RDKit          3D

 16 17  0  0  0  0  0  0  0  0999 V2000
  -28.5500   -6.0820  -30.9410 C   0  0  0  0  0  0  0  0  0  0  0  0
  -27.8980   -6.2490  -32.1280 N   0  0  0  0  0  0  0  0  0  0  0  0
  -29.1740   -7.2590  -30.2460 N   0  0  0  0  0  0  0  0  0  0  0  0
  -27.4070   -5.0590  -32.5140 C   0  0  0  0  0  0  0  0  0  0  0  0
  -27.7650   -4.1620  -31.5530 N   0  0  0  0  0  0  0  0  0  0  0  0
  -28.4520   -4.7820  -30.6110 N   0  0  0  0  0  0  0  0  0  0  0  0
  -28.9460   -4.1770  -29.4720 C   0  0  0  0  0  0  0  0  0  0  0  0
  -29.6260   -4.7330  -28.6240 O   0  0  0  0  0  0  0  0  0  0  0  0
  -28.5420   -2.7340  -29.0990 C   0  0  0  0  0  0  0  0  0  0  0  0
  -28.5670   -7.9010  -29.1760 C   0  0  0  0  0  0  0  0  0  0  0  0
  -29.0940   -7.7970  -27.9150 C   0  0  0  0  0  0  0  0  0  0  0  0
  -28.5310   -8.4920  -26.8700 C   0  0  0  0  0  0  0  0  0  0  0  0
  -27.4390   -9.2980  -27.0520 C   0  0  0  0  0  0  0  0  0  0  0  0
  -26.9130   -9.3950  -28.3240 C   0  0  0  0  0  0  0  0  0  0  0  0
  -27.4650   -8.7020  -29.4070 C   0  0  0  0  0  0  0  0  0  0  0  0
  -26.9270   -8.8160  -30.6670 O   0  0  0  0  0  0  0  0  0  0  0  0
  1  2  2  0
  1  6  1  0
  1  3  1  0
  2  4  1  0
  3 10  1  0
  4  5  2  0
  5  6  1  0
  6  7  1  0
  7  9  1  0
  7  8  2  0
 10 15  1  0
 10 11  2  0
 11 12  1  0
 12 13  2  0
 13 14  1  0
 14 15  2  0
 15 16  1  0
M  CHG  1  16  -1
M  END
>  <name>  (613) 
Car Nac Nd0 Car Nac Nac Cs2 .=O Cs3 Car Car Car Car Car Car .=O

>  <indices>  (613) 
[0, 1, 2]

>  <tasks>  (613) 
probe_placing close_aromatic_ring close_aromatic_ring close_aromatic_ring ring_built build_to_Nac build_DB_to_Cs2 build_SB_to_Cs2 build_to_Nd0 close_aromatic_ring close_aromatic_ring close_aromatic_ring close_aromatic_ring close_aromatic_ring

>  <prot_clashes>  (613) 
8

>  <NBS phar>  (613) 
0.1

>  <NBS_non-phar>  (613) 
0.3758338987827301

>  <NBS>  (613) 
0.4758338987827301

>  <source_stage>  (613) 
scored

>  <source_iter>  (613) 
13

>  <source_parent_mol>  (613) 
0

>  <source_scenario>  (613) 
1 2 3 1 7 1 0 4 3 0 1 1 0

>  <source_rank_in_scored_call>  (613) 
19

>  <source_current_task>  (613) 
build_orthosubstituent_to_rotated_aniline_Nd0

>  <scenario>  (613) 
1 2 3 1 7 1 0 4 3 0 1 1

>  <protected_ring_attachments>  (613) 
3,1,0,2|1,0,2;4,5,0,2|5,0,2;11,10,9,2|10,9,2;13,14,9,2|14,9,2

>  <current_task>  (613) 
no_task

>  <rotatable_bond_torsions>  (613) 
1,0,2,9;0,2,9,10;0,5,6,8

>  <rotated_aniline_Nd0_dihedral>  (613) 
110.51

>  <rotated_aniline_Nd0_tolerance>  (613) 
60.0

>  <rotated_aniline_Nd0_context>  (613) 
diarylamine

>  <rotated_aniline_Nd0_substituent_idx>  (613) 
0

>  <rotated_aniline_Nd0_ring>  (613) 
10 11 12 13 14 9

>  <flag ortho>  (613) 


$$$$

     RDKit          3D

 17 18  0  0  0  0  0  0  0  0999 V2000
  -28.5400   -6.0120  -30.7700 C   0  0  0  0  0  0  0  0  0  0  0  0
  -27.9950   -6.2080  -32.0050 N   0  0  0  0  0  0  0  0  0  0  0  0
  -29.1830   -7.1540  -30.0340 N   0  0  0  0  0  0  0  0  0  0  0  0
  -27.4610   -5.0470  -32.4220 C   0  0  0  0  0  0  0  0  0  0  0  0
  -27.6850   -4.1400  -31.4290 N   0  0  0  0  0  0  0  0  0  0  0  0
  -28.3340   -4.7240  -30.4400 N   0  0  0  0  0  0  0  0  0  0  0  0
  -28.6970   -4.1020  -29.2620 C   0  0  0  0  0  0  0  0  0  0  0  0
  -29.3430   -4.6220  -28.3670 O   0  0  0  0  0  0  0  0  0  0  0  0
  -28.1740   -2.6910  -28.9140 C   0  0  0  0  0  0  0  0  0  0  0  0
  -28.5350   -7.8450  -29.0180 C   0  0  0  0  0  0  0  0  0  0  0  0
  -28.9550   -7.7210  -27.7190 C   0  0  0  0  0  0  0  0  0  0  0  0
  -28.3580   -8.4610  -26.7250 C   0  0  0  0  0  0  0  0  0  0  0  0
  -27.3370   -9.3330  -26.9970 C   0  0  0  0  0  0  0  0  0  0  0  0
  -26.9200   -9.4500  -28.3080 C   0  0  0  0  0  0  0  0  0  0  0  0
  -27.5100   -8.7120  -29.3400 C   0  0  0  0  0  0  0  0  0  0  0  0
  -27.0790   -8.8460  -30.6420 O   0  0  0  0  0  0  0  0  0  0  0  0
  -28.0500   -9.5340  -31.4160 C   0  0  0  0  0  0  0  0  0  0  0  0
  1  2  2  0
  1  6  1  0
  1  3  1  0
  2  4  1  0
  3 10  1  0
  4  5  2  0
  5  6  1  0
  6  7  1  0
  7  9  1  0
  7  8  2  0
 10 15  1  0
 10 11  2  0
 11 12  1  0
 12 13  2  0
 13 14  1  0
 14 15  2  0
 15 16  1  0
 16 17  1  0
M  END
>  <name>  (614) 
Car Nac Nd0 Car Nac Nac Cs2 .=O Cs3 Car Car Car Car Car Car O_a Cs3

>  <indices>  (614) 
[0, 1, 2]

>  <tasks>  (614) 
probe_placing close_aromatic_ring close_aromatic_ring close_aromatic_ring ring_built build_to_Nac build_DB_to_Cs2 build_SB_to_Cs2 build_to_Nd0 close_aromatic_ring close_aromatic_ring close_aromatic_ring close_aromatic_ring close_aromatic_ring build_orthosubstituent_to_rotated_aniline_Nd0

>  <prot_clashes>  (614) 
6

>  <NBS phar>  (614) 
0.22000000000000003

>  <NBS_non-phar>  (614) 
0.4537402040818158

>  <NBS>  (614) 
0.6737402040818159

>  <source_stage>  (614) 
scored

>  <source_iter>  (614) 
14

>  <source_parent_mol>  (614) 
1

>  <source_scenario>  (614) 
1 2 3 1 7 1 0 4 3 0 1 1 0 1

>  <source_rank_in_scored_call>  (614) 
1

>  <source_current_task>  (614) 
build_to_O_a

>  <scenario>  (614) 
1 2 3 1 7 1 0 4 3 0 1 1 0

>  <protected_ring_attachments>  (614) 
3,1,0,2|1,0,2;4,5,0,2|5,0,2;10,9,14,15|9,14,15;11,10,9,2|10,9,2;12,13,14,15|13,14,15;13,14,9,2|14,9,2

>  <current_task>  (614) 
no_task

>  <rotatable_bond_torsions>  (614) 
1,0,2,9;0,2,9,10;0,5,6,8

>  <rotated_aniline_Nd0_dihedral>  (614) 
110.51

>  <rotated_aniline_Nd0_tolerance>  (614) 
60.0

>  <rotated_aniline_Nd0_context>  (614) 
diarylamine

>  <rotated_aniline_Nd0_substituent_idx>  (614) 
0

>  <rotated_aniline_Nd0_ring>  (614) 
10 11 12 13 14 9

>  <flag ortho>  (614) 


$$$$

     RDKit          3D

 17 18  0  0  0  0  0  0  0  0999 V2000
  -28.5410   -5.9570  -30.8350 C   0  0  0  0  0  0  0  0  0  0  0  0
  -27.9330   -6.1080  -32.0480 N   0  0  0  0  0  0  0  0  0  0  0  0
  -29.1840   -7.1350  -30.1570 N   0  0  0  0  0  0  0  0  0  0  0  0
  -27.4150   -4.9220  -32.4120 C   0  0  0  0  0  0  0  0  0  0  0  0
  -27.7110   -4.0460  -31.4110 N   0  0  0  0  0  0  0  0  0  0  0  0
  -28.3880   -4.6720  -30.4670 N   0  0  0  0  0  0  0  0  0  0  0  0
  -28.8240   -4.0890  -29.2930 C   0  0  0  0  0  0  0  0  0  0  0  0
  -29.4950   -4.6490  -28.4420 O   0  0  0  0  0  0  0  0  0  0  0  0
  -28.3590   -2.6730  -28.8890 C   0  0  0  0  0  0  0  0  0  0  0  0
  -28.5640   -7.8310  -29.1270 C   0  0  0  0  0  0  0  0  0  0  0  0
  -29.0470   -7.7510  -27.8480 C   0  0  0  0  0  0  0  0  0  0  0  0
  -28.4750   -8.4970  -26.8440 C   0  0  0  0  0  0  0  0  0  0  0  0
  -27.4170   -9.3330  -27.0870 C   0  0  0  0  0  0  0  0  0  0  0  0
  -26.9360   -9.4060  -28.3790 C   0  0  0  0  0  0  0  0  0  0  0  0
  -27.4990   -8.6600  -29.4200 C   0  0  0  0  0  0  0  0  0  0  0  0
  -27.0040   -8.7510  -30.7040 O   0  0  0  0  0  0  0  0  0  0  0  0
  -25.7940   -8.1160  -30.9990 C   0  0  0  0  0  0  0  0  0  0  0  0
  1  2  2  0
  1  6  1  0
  1  3  1  0
  2  4  1  0
  3 10  1  0
  4  5  2  0
  5  6  1  0
  6  7  1  0
  7  9  1  0
  7  8  2  0
 10 15  1  0
 10 11  2  0
 11 12  1  0
 12 13  2  0
 13 14  1  0
 14 15  2  0
 15 16  1  0
 16 17  1  0
M  END
>  <name>  (615) 
Car Nac Nd0 Car Nac Nac Cs2 .=O Cs3 Car Car Car Car Car Car O_a Cs3

>  <indices>  (615) 
[0, 1, 2]

>  <tasks>  (615) 
probe_placing close_aromatic_ring close_aromatic_ring close_aromatic_ring ring_built build_to_Nac build_DB_to_Cs2 build_SB_to_Cs2 build_to_Nd0 close_aromatic_ring close_aromatic_ring close_aromatic_ring close_aromatic_ring close_aromatic_ring build_orthosubstituent_to_rotated_aniline_Nd0

>  <prot_clashes>  (615) 
10

>  <NBS phar>  (615) 
0.2

>  <NBS_non-phar>  (615) 
0.4483107398538029

>  <NBS>  (615) 
0.6483107398538028

>  <source_stage>  (615) 
scored

>  <source_iter>  (615) 
14

>  <source_parent_mol>  (615) 
1

>  <source_scenario>  (615) 
1 2 3 1 7 1 0 4 3 0 1 1 0 1

>  <source_rank_in_scored_call>  (615) 
4

>  <source_current_task>  (615) 
build_to_O_a

>  <scenario>  (615) 
1 2 3 1 7 1 0 4 3 0 1 1 0

>  <protected_ring_attachments>  (615) 
3,1,0,2|1,0,2;4,5,0,2|5,0,2;10,9,14,15|9,14,15;11,10,9,2|10,9,2;12,13,14,15|13,14,15;13,14,9,2|14,9,2

>  <current_task>  (615) 
no_task

>  <rotatable_bond_torsions>  (615) 
1,0,2,9;0,2,9,10;0,5,6,8

>  <rotated_aniline_Nd0_dihedral>  (615) 
110.51

>  <rotated_aniline_Nd0_tolerance>  (615) 
60.0

>  <rotated_aniline_Nd0_context>  (615) 
diarylamine

>  <rotated_aniline_Nd0_substituent_idx>  (615) 
0

>  <rotated_aniline_Nd0_ring>  (615) 
10 11 12 13 14 9

>  <flag ortho>  (615) 


$$$$

     RDKit          3D

 17 18  0  0  0  0  0  0  0  0999 V2000
  -28.5540   -5.9770  -30.7650 C   0  0  0  0  0  0  0  0  0  0  0  0
  -27.9940   -6.1680  -31.9950 N   0  0  0  0  0  0  0  0  0  0  0  0
  -29.1970   -7.1250  -30.0380 N   0  0  0  0  0  0  0  0  0  0  0  0
  -27.4630   -5.0030  -32.4040 C   0  0  0  0  0  0  0  0  0  0  0  0
  -27.7040   -4.0980  -31.4140 N   0  0  0  0  0  0  0  0  0  0  0  0
  -28.3600   -4.6880  -30.4320 N   0  0  0  0  0  0  0  0  0  0  0  0
  -28.7410   -4.0700  -29.2570 C   0  0  0  0  0  0  0  0  0  0  0  0
  -29.3930   -4.5960  -28.3700 O   0  0  0  0  0  0  0  0  0  0  0  0
  -28.2320   -2.6560  -28.9020 C   0  0  0  0  0  0  0  0  0  0  0  0
  -28.5560   -7.8120  -29.0150 C   0  0  0  0  0  0  0  0  0  0  0  0
  -28.9900   -7.6930  -27.7220 C   0  0  0  0  0  0  0  0  0  0  0  0
  -28.4000   -8.4300  -26.7220 C   0  0  0  0  0  0  0  0  0  0  0  0
  -27.3690   -9.2940  -26.9840 C   0  0  0  0  0  0  0  0  0  0  0  0
  -26.9370   -9.4070  -28.2900 C   0  0  0  0  0  0  0  0  0  0  0  0
  -27.5200   -8.6710  -29.3270 C   0  0  0  0  0  0  0  0  0  0  0  0
  -27.0740   -8.8020  -30.6250 O   0  0  0  0  0  0  0  0  0  0  0  0
  -27.8560   -9.5290  -31.5250 C   0  0  0  0  0  0  0  0  0  0  0  0
  1  2  2  0
  1  6  1  0
  1  3  1  0
  2  4  1  0
  3 10  1  0
  4  5  2  0
  5  6  1  0
  6  7  1  0
  7  9  1  0
  7  8  2  0
 10 15  1  0
 10 11  2  0
 11 12  1  0
 12 13  2  0
 13 14  1  0
 14 15  2  0
 15 16  1  0
 16 17  1  0
M  END
>  <name>  (616) 
Car Nac Nd0 Car Nac Nac Cs2 .=O Cs3 Car Car Car Car Car Car O_a Cs3

>  <indices>  (616) 
[0, 1, 2]

>  <tasks>  (616) 
probe_placing close_aromatic_ring close_aromatic_ring close_aromatic_ring ring_built build_to_Nac build_DB_to_Cs2 build_SB_to_Cs2 build_to_Nd0 close_aromatic_ring close_aromatic_ring close_aromatic_ring close_aromatic_ring close_aromatic_ring build_orthosubstituent_to_rotated_aniline_Nd0

>  <prot_clashes>  (616) 
7

>  <NBS phar>  (616) 
0.2

>  <NBS_non-phar>  (616) 
0.42989099726957436

>  <NBS>  (616) 
0.6298909972695743

>  <source_stage>  (616) 
scored

>  <source_iter>  (616) 
14

>  <source_parent_mol>  (616) 
1

>  <source_scenario>  (616) 
1 2 3 1 7 1 0 4 3 0 1 1 0 1

>  <source_rank_in_scored_call>  (616) 
9

>  <source_current_task>  (616) 
build_to_O_a

>  <scenario>  (616) 
1 2 3 1 7 1 0 4 3 0 1 1 0

>  <protected_ring_attachments>  (616) 
3,1,0,2|1,0,2;4,5,0,2|5,0,2;10,9,14,15|9,14,15;11,10,9,2|10,9,2;12,13,14,15|13,14,15;13,14,9,2|14,9,2

>  <current_task>  (616) 
no_task

>  <rotatable_bond_torsions>  (616) 
1,0,2,9;0,2,9,10;0,5,6,8

>  <rotated_aniline_Nd0_dihedral>  (616) 
110.51

>  <rotated_aniline_Nd0_tolerance>  (616) 
60.0

>  <rotated_aniline_Nd0_context>  (616) 
diarylamine

>  <rotated_aniline_Nd0_substituent_idx>  (616) 
0

>  <rotated_aniline_Nd0_ring>  (616) 
10 11 12 13 14 9

>  <flag ortho>  (616) 


$$$$

     RDKit          3D

 17 18  0  0  0  0  0  0  0  0999 V2000
  -28.5660   -5.9200  -30.9220 C   0  0  0  0  0  0  0  0  0  0  0  0
  -27.9870   -6.0580  -32.1500 N   0  0  0  0  0  0  0  0  0  0  0  0
  -29.2040   -7.1010  -30.2460 N   0  0  0  0  0  0  0  0  0  0  0  0
  -27.4670   -4.8720  -32.5090 C   0  0  0  0  0  0  0  0  0  0  0  0
  -27.7330   -4.0070  -31.4890 N   0  0  0  0  0  0  0  0  0  0  0  0
  -28.3940   -4.6410  -30.5390 N   0  0  0  0  0  0  0  0  0  0  0  0
  -28.8000   -4.0710  -29.3480 C   0  0  0  0  0  0  0  0  0  0  0  0
  -29.4560   -4.6370  -28.4900 O   0  0  0  0  0  0  0  0  0  0  0  0
  -28.3140   -2.6640  -28.9350 C   0  0  0  0  0  0  0  0  0  0  0  0
  -28.5680   -7.8170  -29.2400 C   0  0  0  0  0  0  0  0  0  0  0  0
  -29.0220   -7.7510  -27.9490 C   0  0  0  0  0  0  0  0  0  0  0  0
  -28.4350   -8.5160  -26.9690 C   0  0  0  0  0  0  0  0  0  0  0  0
  -27.3900   -9.3570  -27.2470 C   0  0  0  0  0  0  0  0  0  0  0  0
  -26.9380   -9.4160  -28.5510 C   0  0  0  0  0  0  0  0  0  0  0  0
  -27.5170   -8.6510  -29.5690 C   0  0  0  0  0  0  0  0  0  0  0  0
  -27.0520   -8.7280  -30.8640 O   0  0  0  0  0  0  0  0  0  0  0  0
  -25.7770   -8.1080  -30.9750 C   0  0  0  0  0  0  0  0  0  0  0  0
  1  2  2  0
  1  6  1  0
  1  3  1  0
  2  4  1  0
  3 10  1  0
  4  5  2  0
  5  6  1  0
  6  7  1  0
  7  9  1  0
  7  8  2  0
 10 15  1  0
 10 11  2  0
 11 12  1  0
 12 13  2  0
 13 14  1  0
 14 15  2  0
 15 16  1  0
 16 17  1  0
M  END
>  <name>  (617) 
Car Nac Nd0 Car Nac Nac Cs2 .=O Cs3 Car Car Car Car Car Car O_a Cs3

>  <indices>  (617) 
[0, 1, 2]

>  <tasks>  (617) 
probe_placing close_aromatic_ring close_aromatic_ring close_aromatic_ring ring_built build_to_Nac build_DB_to_Cs2 build_SB_to_Cs2 build_to_Nd0 close_aromatic_ring close_aromatic_ring close_aromatic_ring close_aromatic_ring close_aromatic_ring build_orthosubstituent_to_rotated_aniline_Nd0

>  <prot_clashes>  (617) 
11

>  <NBS phar>  (617) 
0.2

>  <NBS_non-phar>  (617) 
0.4243923916536219

>  <NBS>  (617) 
0.6243923916536219

>  <source_stage>  (617) 
scored

>  <source_iter>  (617) 
14

>  <source_parent_mol>  (617) 
1

>  <source_scenario>  (617) 
1 2 3 1 7 1 0 4 3 0 1 1 0 1

>  <source_rank_in_scored_call>  (617) 
10

>  <source_current_task>  (617) 
build_to_O_a

>  <scenario>  (617) 
1 2 3 1 7 1 0 4 3 0 1 1 0

>  <protected_ring_attachments>  (617) 
3,1,0,2|1,0,2;4,5,0,2|5,0,2;10,9,14,15|9,14,15;11,10,9,2|10,9,2;12,13,14,15|13,14,15;13,14,9,2|14,9,2

>  <current_task>  (617) 
no_task

>  <rotatable_bond_torsions>  (617) 
1,0,2,9;0,2,9,10;0,5,6,8

>  <rotated_aniline_Nd0_dihedral>  (617) 
110.51

>  <rotated_aniline_Nd0_tolerance>  (617) 
60.0

>  <rotated_aniline_Nd0_context>  (617) 
diarylamine

>  <rotated_aniline_Nd0_substituent_idx>  (617) 
0

>  <rotated_aniline_Nd0_ring>  (617) 
10 11 12 13 14 9

>  <flag ortho>  (617) 


$$$$

     RDKit          3D

 17 18  0  0  0  0  0  0  0  0999 V2000
  -28.5730   -6.0250  -30.7220 C   0  0  0  0  0  0  0  0  0  0  0  0
  -28.1860   -6.2830  -32.0040 N   0  0  0  0  0  0  0  0  0  0  0  0
  -29.2110   -7.1020  -29.8900 N   0  0  0  0  0  0  0  0  0  0  0  0
  -27.6190   -5.1730  -32.5070 C   0  0  0  0  0  0  0  0  0  0  0  0
  -27.6630   -4.2340  -31.5210 N   0  0  0  0  0  0  0  0  0  0  0  0
  -28.2380   -4.7500  -30.4510 N   0  0  0  0  0  0  0  0  0  0  0  0
  -28.4210   -4.0810  -29.2560 C   0  0  0  0  0  0  0  0  0  0  0  0
  -28.9980   -4.5350  -28.2820 O   0  0  0  0  0  0  0  0  0  0  0  0
  -27.7600   -2.7080  -29.0050 C   0  0  0  0  0  0  0  0  0  0  0  0
  -28.5050   -7.8210  -28.9340 C   0  0  0  0  0  0  0  0  0  0  0  0
  -28.7660   -7.6430  -27.6000 C   0  0  0  0  0  0  0  0  0  0  0  0
  -28.1170   -8.4080  -26.6600 C   0  0  0  0  0  0  0  0  0  0  0  0
  -27.1990   -9.3590  -27.0200 C   0  0  0  0  0  0  0  0  0  0  0  0
  -26.9420   -9.5300  -28.3660 C   0  0  0  0  0  0  0  0  0  0  0  0
  -27.5880   -8.7680  -29.3450 C   0  0  0  0  0  0  0  0  0  0  0  0
  -27.3170   -8.9580  -30.6830 O   0  0  0  0  0  0  0  0  0  0  0  0
  -28.0510  -10.0370  -31.3180 C   0  0  0  0  0  0  0  0  0  0  0  0
  1  2  2  0
  1  6  1  0
  1  3  1  0
  2  4  1  0
  3 10  1  0
  4  5  2  0
  5  6  1  0
  6  7  1  0
  7  9  1  0
  7  8  2  0
 10 15  1  0
 10 11  2  0
 11 12  1  0
 12 13  2  0
 13 14  1  0
 14 15  2  0
 15 16  1  0
 16 17  1  0
M  END
>  <name>  (618) 
Car Nac Nd0 Car Nac Nac Cs2 .=O Cs3 Car Car Car Car Car Car O_a Cs3

>  <indices>  (618) 
[0, 1, 2]

>  <tasks>  (618) 
probe_placing close_aromatic_ring close_aromatic_ring close_aromatic_ring ring_built build_to_Nac build_DB_to_Cs2 build_SB_to_Cs2 build_to_Nd0 close_aromatic_ring close_aromatic_ring close_aromatic_ring close_aromatic_ring close_aromatic_ring build_orthosubstituent_to_rotated_aniline_Nd0

>  <prot_clashes>  (618) 
7

>  <NBS phar>  (618) 
0.12

>  <NBS_non-phar>  (618) 
0.4078229455386891

>  <NBS>  (618) 
0.5278229455386891

>  <source_stage>  (618) 
scored

>  <source_iter>  (618) 
14

>  <source_parent_mol>  (618) 
1

>  <source_scenario>  (618) 
1 2 3 1 7 1 0 4 3 0 1 1 0 1

>  <source_rank_in_scored_call>  (618) 
16

>  <source_current_task>  (618) 
build_to_O_a

>  <scenario>  (618) 
1 2 3 1 7 1 0 4 3 0 1 1 0

>  <protected_ring_attachments>  (618) 
3,1,0,2|1,0,2;4,5,0,2|5,0,2;10,9,14,15|9,14,15;11,10,9,2|10,9,2;12,13,14,15|13,14,15;13,14,9,2|14,9,2

>  <current_task>  (618) 
no_task

>  <rotatable_bond_torsions>  (618) 
1,0,2,9;0,2,9,10;0,5,6,8

>  <rotated_aniline_Nd0_dihedral>  (618) 
110.51

>  <rotated_aniline_Nd0_tolerance>  (618) 
60.0

>  <rotated_aniline_Nd0_context>  (618) 
diarylamine

>  <rotated_aniline_Nd0_substituent_idx>  (618) 
0

>  <rotated_aniline_Nd0_ring>  (618) 
10 11 12 13 14 9

>  <flag ortho>  (618) 


$$$$

     RDKit          3D

 17 18  0  0  0  0  0  0  0  0999 V2000
  -28.4710   -6.7600  -30.9030 C   0  0  0  0  0  0  0  0  0  0  0  0
  -27.9500   -6.7550  -32.1640 N   0  0  0  0  0  0  0  0  0  0  0  0
  -28.8260   -8.0560  -30.2330 N   0  0  0  0  0  0  0  0  0  0  0  0
  -27.6880   -5.4840  -32.5130 C   0  0  0  0  0  0  0  0  0  0  0  0
  -28.0570   -4.7080  -31.4550 N   0  0  0  0  0  0  0  0  0  0  0  0
  -28.5260   -5.4800  -30.4910 N   0  0  0  0  0  0  0  0  0  0  0  0
  -28.9640   -5.0250  -29.2650 C   0  0  0  0  0  0  0  0  0  0  0  0
  -29.4480   -5.7260  -28.3890 O   0  0  0  0  0  0  0  0  0  0  0  0
  -28.7370   -3.5610  -28.8280 C   0  0  0  0  0  0  0  0  0  0  0  0
  -29.0110   -9.1200  -30.7340 C   0  0  0  0  0  0  0  0  0  0  0  0
  -28.8140   -9.4770  -31.9600 O   0  0  0  0  0  0  0  0  0  0  0  0
  -29.5430  -10.3750  -29.9090 C   0  0  0  0  0  0  0  0  0  0  0  0
  -29.3870  -11.6900  -30.2970 C   0  0  0  0  0  0  0  0  0  0  0  0
  -30.2410  -10.1360  -28.7430 C   0  0  0  0  0  0  0  0  0  0  0  0
  -29.9170  -12.7040  -29.5270 C   0  0  0  0  0  0  0  0  0  0  0  0
  -30.7750  -11.1450  -27.9670 C   0  0  0  0  0  0  0  0  0  0  0  0
  -30.6170  -12.4800  -28.3580 C   0  0  0  0  0  0  0  0  0  0  0  0
  1  2  2  0
  1  6  1  0
  1  3  1  0
  2  4  1  0
  3 10  1  0
  4  5  2  0
  5  6  1  0
  6  7  1  0
  7  9  1  0
  7  8  2  0
 10 11  2  0
 10 12  1  0
 12 13  2  0
 12 14  1  0
 13 15  1  0
 14 16  2  0
 15 17  2  0
 16 17  1  0
M  END
>  <name>  (619) 
Car Nac Nd0 Car Nac Nac Cs2 .=O Cs3 Cs2 .=O Car Car Car Car Car Car

>  <indices>  (619) 
[0, 1, 2]

>  <tasks>  (619) 
probe_placing close_aromatic_ring close_aromatic_ring close_aromatic_ring ring_built build_to_Nac build_DB_to_Cs2 build_SB_to_Cs2 build_to_Nd0 build_DB_to_Cs2 build_SB_to_Cs2 close_aromatic_ring close_aromatic_ring close_aromatic_ring close_aromatic_ring

>  <prot_clashes>  (619) 
3

>  <NBS phar>  (619) 
0.22000000000000003

>  <NBS_non-phar>  (619) 
0.3760276401744169

>  <NBS>  (619) 
0.5960276401744169

>  <source_stage>  (619) 
scored

>  <source_iter>  (619) 
14

>  <source_parent_mol>  (619) 
0

>  <source_scenario>  (619) 
1 2 3 1 7 1 0 7 1 1 0 3 0 0

>  <source_rank_in_scored_call>  (619) 
0

>  <source_current_task>  (619) 
close_aromatic_ring

>  <scenario>  (619) 
1 2 3 1 7 1 0 7 1 1 0 3 0

>  <protected_ring_attachments>  (619) 
3,1,0,2|1,0,2;4,5,0,2|5,0,2

>  <current_task>  (619) 
no_task

>  <rotatable_bond_torsions>  (619) 
1,0,2,9;0,2,9,11;0,5,6,8;2,9,11,12;9,11,12,14

$$$$

     RDKit          3D

 17 18  0  0  0  0  0  0  0  0999 V2000
  -28.4820   -6.6930  -30.9020 C   0  0  0  0  0  0  0  0  0  0  0  0
  -27.9520   -6.6940  -32.1600 N   0  0  0  0  0  0  0  0  0  0  0  0
  -28.8410   -7.9840  -30.2290 N   0  0  0  0  0  0  0  0  0  0  0  0
  -27.6880   -5.4240  -32.5130 C   0  0  0  0  0  0  0  0  0  0  0  0
  -28.0640   -4.6430  -31.4620 N   0  0  0  0  0  0  0  0  0  0  0  0
  -28.5390   -5.4090  -30.4970 N   0  0  0  0  0  0  0  0  0  0  0  0
  -28.9850   -4.9500  -29.2760 C   0  0  0  0  0  0  0  0  0  0  0  0
  -29.4760   -5.6460  -28.4010 O   0  0  0  0  0  0  0  0  0  0  0  0
  -28.7580   -3.4830  -28.8460 C   0  0  0  0  0  0  0  0  0  0  0  0
  -29.0210   -9.0520  -30.7260 C   0  0  0  0  0  0  0  0  0  0  0  0
  -28.8180   -9.4160  -31.9490 O   0  0  0  0  0  0  0  0  0  0  0  0
  -29.5630  -10.1950  -29.8480 C   0  0  0  0  0  0  0  0  0  0  0  0
  -29.6880  -11.4930  -30.2840 C   0  0  0  0  0  0  0  0  0  0  0  0
  -30.1210  -12.4970  -29.4260 C   0  0  0  0  0  0  0  0  0  0  0  0
  -29.8800   -9.9170  -28.5280 C   0  0  0  0  0  0  0  0  0  0  0  0
  -30.4330  -12.1830  -28.0980 C   0  0  0  0  0  0  0  0  0  0  0  0
  -30.3130  -10.8860  -27.6440 C   0  0  0  0  0  0  0  0  0  0  0  0
  1  2  2  0
  1  6  1  0
  1  3  1  0
  2  4  1  0
  3 10  1  0
  4  5  2  0
  5  6  1  0
  6  7  1  0
  7  9  1  0
  7  8  2  0
 10 11  2  0
 10 12  1  0
 12 13  2  0
 12 15  1  0
 13 14  1  0
 14 16  2  0
 15 17  2  0
 16 17  1  0
M  END
>  <name>  (620) 
Car Nac Nd0 Car Nac Nac Cs2 .=O Cs3 Cs2 .=O Car Car Car Car Car Car

>  <indices>  (620) 
[0, 1, 2]

>  <tasks>  (620) 
probe_placing close_aromatic_ring close_aromatic_ring close_aromatic_ring ring_built build_to_Nac build_DB_to_Cs2 build_SB_to_Cs2 build_to_Nd0 build_DB_to_Cs2 build_SB_to_Cs2 close_aromatic_ring close_aromatic_ring close_aromatic_ring close_aromatic_ring

>  <prot_clashes>  (620) 
3

>  <NBS phar>  (620) 
0.22000000000000003

>  <NBS_non-phar>  (620) 
0.3704702994402717

>  <NBS>  (620) 
0.5904702994402717

>  <source_stage>  (620) 
scored

>  <source_iter>  (620) 
14

>  <source_parent_mol>  (620) 
2

>  <source_scenario>  (620) 
1 2 3 1 7 1 0 7 1 1 1 1 0 2

>  <source_rank_in_scored_call>  (620) 
0

>  <source_current_task>  (620) 
close_aromatic_ring

>  <scenario>  (620) 
1 2 3 1 7 1 0 7 1 1 1 1 0

>  <protected_ring_attachments>  (620) 
3,1,0,2|1,0,2;4,5,0,2|5,0,2

>  <current_task>  (620) 
no_task

>  <rotatable_bond_torsions>  (620) 
1,0,2,9;0,2,9,11;0,5,6,8;2,9,11,12;11,12,13,15

$$$$

     RDKit          3D

 17 18  0  0  0  0  0  0  0  0999 V2000
  -28.4810   -6.6660  -30.8950 C   0  0  0  0  0  0  0  0  0  0  0  0
  -27.9500   -6.6630  -32.1530 N   0  0  0  0  0  0  0  0  0  0  0  0
  -28.8420   -7.9600  -30.2280 N   0  0  0  0  0  0  0  0  0  0  0  0
  -27.6860   -5.3920  -32.5010 C   0  0  0  0  0  0  0  0  0  0  0  0
  -28.0620   -4.6150  -31.4480 N   0  0  0  0  0  0  0  0  0  0  0  0
  -28.5400   -5.3840  -30.4870 N   0  0  0  0  0  0  0  0  0  0  0  0
  -28.9870   -4.9280  -29.2650 C   0  0  0  0  0  0  0  0  0  0  0  0
  -29.4800   -5.6270  -28.3920 O   0  0  0  0  0  0  0  0  0  0  0  0
  -28.7620   -3.4640  -28.8290 C   0  0  0  0  0  0  0  0  0  0  0  0
  -29.0230   -9.0260  -30.7290 C   0  0  0  0  0  0  0  0  0  0  0  0
  -28.8170   -9.3840  -31.9530 O   0  0  0  0  0  0  0  0  0  0  0  0
  -29.5630  -10.1200  -29.8060 C   0  0  0  0  0  0  0  0  0  0  0  0
  -29.6910  -11.4330  -30.2660 C   0  0  0  0  0  0  0  0  0  0  0  0
  -30.1280  -12.4500  -29.4170 C   0  0  0  0  0  0  0  0  0  0  0  0
  -30.4420  -12.1710  -28.1030 C   0  0  0  0  0  0  0  0  0  0  0  0
  -30.3230  -10.8830  -27.6290 C   0  0  0  0  0  0  0  0  0  0  0  0
  -29.8840   -9.8820  -28.4950 C   0  0  0  0  0  0  0  0  0  0  0  0
  1  2  2  0
  1  6  1  0
  1  3  1  0
  2  4  1  0
  3 10  1  0
  4  5  2  0
  5  6  1  0
  6  7  1  0
  7  9  1  0
  7  8  2  0
 10 11  2  0
 10 12  1  0
 12 13  2  0
 12 17  1  0
 13 14  1  0
 14 15  2  0
 15 16  1  0
 16 17  2  0
M  END
>  <name>  (621) 
Car Nac Nd0 Car Nac Nac Cs2 .=O Cs3 Cs2 .=O Car Car Car Car Car Car

>  <indices>  (621) 
[0, 1, 2]

>  <tasks>  (621) 
probe_placing close_aromatic_ring close_aromatic_ring close_aromatic_ring ring_built build_to_Nac build_DB_to_Cs2 build_SB_to_Cs2 build_to_Nd0 build_DB_to_Cs2 build_SB_to_Cs2 close_aromatic_ring close_aromatic_ring close_aromatic_ring close_aromatic_ring

>  <prot_clashes>  (621) 
3

>  <NBS phar>  (621) 
0.22000000000000003

>  <NBS_non-phar>  (621) 
0.3830537515528062

>  <NBS>  (621) 
0.6030537515528063

>  <source_stage>  (621) 
scored

>  <source_iter>  (621) 
14

>  <source_parent_mol>  (621) 
0

>  <source_scenario>  (621) 
1 2 3 1 7 1 0 7 1 1 1 1 2 0

>  <source_rank_in_scored_call>  (621) 
0

>  <source_current_task>  (621) 
close_aromatic_ring

>  <scenario>  (621) 
1 2 3 1 7 1 0 7 1 1 1 1 2

>  <protected_ring_attachments>  (621) 
3,1,0,2|1,0,2;4,5,0,2|5,0,2

>  <current_task>  (621) 
no_task

>  <rotatable_bond_torsions>  (621) 
1,0,2,9;0,2,9,11;0,5,6,8;2,9,11,12;11,12,13,14

$$$$

     RDKit          3D

 17 18  0  0  0  0  0  0  0  0999 V2000
  -28.5050   -6.5920  -30.9070 C   0  0  0  0  0  0  0  0  0  0  0  0
  -27.9340   -6.6250  -32.1470 N   0  0  0  0  0  0  0  0  0  0  0  0
  -28.9110   -7.8660  -30.2270 N   0  0  0  0  0  0  0  0  0  0  0  0
  -27.6360   -5.3660  -32.5130 C   0  0  0  0  0  0  0  0  0  0  0  0
  -28.0320   -4.5600  -31.4880 N   0  0  0  0  0  0  0  0  0  0  0  0
  -28.5540   -5.3010  -30.5280 N   0  0  0  0  0  0  0  0  0  0  0  0
  -29.0320   -4.8120  -29.3300 C   0  0  0  0  0  0  0  0  0  0  0  0
  -29.5650   -5.4850  -28.4600 O   0  0  0  0  0  0  0  0  0  0  0  0
  -28.7950   -3.3430  -28.9170 C   0  0  0  0  0  0  0  0  0  0  0  0
  -29.0940   -8.9390  -30.7120 C   0  0  0  0  0  0  0  0  0  0  0  0
  -28.8550   -9.3260  -31.9200 O   0  0  0  0  0  0  0  0  0  0  0  0
  -29.5040  -10.1260  -29.7750 C   0  0  0  0  0  0  0  0  0  0  0  0
  -29.8190  -11.3820  -30.2630 C   0  0  0  0  0  0  0  0  0  0  0  0
  -30.3910  -12.3150  -29.4140 C   0  0  0  0  0  0  0  0  0  0  0  0
  -30.6610  -12.0330  -28.0830 C   0  0  0  0  0  0  0  0  0  0  0  0
  -30.3300  -10.7540  -27.6250 C   0  0  0  0  0  0  0  0  0  0  0  0
  -29.7590   -9.8080  -28.4550 C   0  0  0  0  0  0  0  0  0  0  0  0
  1  2  2  0
  1  6  1  0
  1  3  1  0
  2  4  1  0
  3 10  1  0
  4  5  2  0
  5  6  1  0
  6  7  1  0
  7  9  1  0
  7  8  2  0
 10 11  2  0
 10 12  1  0
 12 13  2  0
 12 17  1  0
 13 14  1  0
 14 15  2  0
 15 16  1  0
 16 17  2  0
M  END
>  <name>  (622) 
Car Nac Nd0 Car Nac Nac Cs2 .=O Cs3 Cs2 .=O Car Car Car Car Car Car

>  <indices>  (622) 
[0, 1, 2]

>  <tasks>  (622) 
probe_placing close_aromatic_ring close_aromatic_ring close_aromatic_ring ring_built build_to_Nac build_DB_to_Cs2 build_SB_to_Cs2 build_to_Nd0 build_DB_to_Cs2 build_SB_to_Cs2 close_aromatic_ring close_aromatic_ring close_aromatic_ring close_aromatic_ring

>  <prot_clashes>  (622) 
3

>  <NBS phar>  (622) 
0.2

>  <NBS_non-phar>  (622) 
0.3500516554888557

>  <NBS>  (622) 
0.5500516554888557

>  <source_stage>  (622) 
scored

>  <source_iter>  (622) 
14

>  <source_parent_mol>  (622) 
0

>  <source_scenario>  (622) 
1 2 3 1 7 1 0 7 1 1 1 1 2 0

>  <source_rank_in_scored_call>  (622) 
1

>  <source_current_task>  (622) 
close_aromatic_ring

>  <scenario>  (622) 
1 2 3 1 7 1 0 7 1 1 1 1 2

>  <protected_ring_attachments>  (622) 
3,1,0,2|1,0,2;4,5,0,2|5,0,2

>  <current_task>  (622) 
no_task

>  <rotatable_bond_torsions>  (622) 
1,0,2,9;0,2,9,11;0,5,6,8;2,9,11,12;11,12,13,14

$$$$

     RDKit          3D

 17 18  0  0  0  0  0  0  0  0999 V2000
  -28.4770   -6.7450  -30.8980 C   0  0  0  0  0  0  0  0  0  0  0  0
  -27.9490   -6.7480  -32.1570 N   0  0  0  0  0  0  0  0  0  0  0  0
  -28.8340   -8.0330  -30.2190 N   0  0  0  0  0  0  0  0  0  0  0  0
  -27.6880   -5.4790  -32.5130 C   0  0  0  0  0  0  0  0  0  0  0  0
  -28.0620   -4.6950  -31.4650 N   0  0  0  0  0  0  0  0  0  0  0  0
  -28.5340   -5.4580  -30.4960 N   0  0  0  0  0  0  0  0  0  0  0  0
  -28.9770   -4.9960  -29.2740 C   0  0  0  0  0  0  0  0  0  0  0  0
  -29.4660   -5.6900  -28.3970 O   0  0  0  0  0  0  0  0  0  0  0  0
  -28.7510   -3.5280  -28.8500 C   0  0  0  0  0  0  0  0  0  0  0  0
  -29.0150   -9.1030  -30.7110 C   0  0  0  0  0  0  0  0  0  0  0  0
  -28.8130   -9.4700  -31.9340 O   0  0  0  0  0  0  0  0  0  0  0  0
  -29.5800  -10.3380  -29.7980 C   0  0  0  0  0  0  0  0  0  0  0  0
  -29.6770  -11.6300  -30.2640 C   0  0  0  0  0  0  0  0  0  0  0  0
  -29.8970   -9.9670  -28.5070 C   0  0  0  0  0  0  0  0  0  0  0  0
  -30.3360  -10.9450  -27.6320 C   0  0  0  0  0  0  0  0  0  0  0  0
  -30.1160  -12.5950  -29.3850 C   0  0  0  0  0  0  0  0  0  0  0  0
  -30.4370  -12.2430  -28.0900 C   0  0  0  0  0  0  0  0  0  0  0  0
  1  2  2  0
  1  6  1  0
  1  3  1  0
  2  4  1  0
  3 10  1  0
  4  5  2  0
  5  6  1  0
  6  7  1  0
  7  9  1  0
  7  8  2  0
 10 11  2  0
 10 12  1  0
 12 13  2  0
 12 14  1  0
 13 16  1  0
 14 15  2  0
 15 17  1  0
 16 17  2  0
M  END
>  <name>  (623) 
Car Nac Nd0 Car Nac Nac Cs2 .=O Cs3 Cs2 .=O Car Car Car Car Car Car

>  <indices>  (623) 
[0, 1, 2]

>  <tasks>  (623) 
probe_placing close_aromatic_ring close_aromatic_ring close_aromatic_ring ring_built build_to_Nac build_DB_to_Cs2 build_SB_to_Cs2 build_to_Nd0 build_DB_to_Cs2 build_SB_to_Cs2 close_aromatic_ring close_aromatic_ring close_aromatic_ring close_aromatic_ring

>  <prot_clashes>  (623) 
3

>  <NBS phar>  (623) 
0.22000000000000003

>  <NBS_non-phar>  (623) 
0.36889875636381264

>  <NBS>  (623) 
0.5888987563638126

>  <source_stage>  (623) 
scored

>  <source_iter>  (623) 
14

>  <source_parent_mol>  (623) 
1

>  <source_scenario>  (623) 
1 2 3 1 7 1 0 7 1 1 1 2 1 1

>  <source_rank_in_scored_call>  (623) 
1

>  <source_current_task>  (623) 
close_aromatic_ring

>  <scenario>  (623) 
1 2 3 1 7 1 0 7 1 1 1 2 1

>  <protected_ring_attachments>  (623) 
3,1,0,2|1,0,2;4,5,0,2|5,0,2

>  <current_task>  (623) 
no_task

>  <rotatable_bond_torsions>  (623) 
1,0,2,9;0,2,9,11;0,5,6,8;2,9,11,12;9,11,13,14

$$$$

     RDKit          3D

 20 22  0  0  0  0  0  0  0  0999 V2000
  -28.4780   -6.7200  -30.8860 C   0  0  0  0  0  0  0  0  0  0  0  0
  -27.9490   -6.7370  -32.1460 N   0  0  0  0  0  0  0  0  0  0  0  0
  -28.8330   -8.0030  -30.1960 N   0  0  0  0  0  0  0  0  0  0  0  0
  -27.6890   -5.4710  -32.5130 C   0  0  0  0  0  0  0  0  0  0  0  0
  -28.0640   -4.6770  -31.4710 N   0  0  0  0  0  0  0  0  0  0  0  0
  -28.5350   -5.4310  -30.4970 N   0  0  0  0  0  0  0  0  0  0  0  0
  -28.9790   -4.9580  -29.2780 C   0  0  0  0  0  0  0  0  0  0  0  0
  -29.4670   -5.6420  -28.3950 O   0  0  0  0  0  0  0  0  0  0  0  0
  -28.7550   -3.4850  -28.8700 C   0  0  0  0  0  0  0  0  0  0  0  0
  -29.0120   -9.0770  -30.6770 C   0  0  0  0  0  0  0  0  0  0  0  0
  -28.8110   -9.4560  -31.8980 O   0  0  0  0  0  0  0  0  0  0  0  0
  -29.5670  -10.2460  -29.7730 C   0  0  0  0  0  0  0  0  0  0  0  0
  -29.6500  -11.5480  -30.2390 C   0  0  0  0  0  0  0  0  0  0  0  0
  -29.9120   -9.9980  -28.4500 C   0  0  0  0  0  0  0  0  0  0  0  0
  -30.3270  -11.0030  -27.6110 C   0  0  0  0  0  0  0  0  0  0  0  0
  -30.0550  -12.5440  -29.4270 N   0  0  0  0  0  0  0  0  0  0  0  0
  -30.3950  -12.3530  -28.1540 C   0  0  0  0  0  0  0  0  0  0  0  0
  -30.8370  -13.1560  -27.1050 C   0  0  0  0  0  0  0  0  0  0  0  0
  -31.0290  -12.3640  -25.9920 C   0  0  0  0  0  0  0  0  0  0  0  0
  -30.7240  -11.0450  -26.2750 C   0  0  0  0  0  0  0  0  0  0  0  0
  1  2  2  0
  1  6  1  0
  1  3  1  0
  2  4  1  0
  3 10  1  0
  4  5  2  0
  5  6  1  0
  6  7  1  0
  7  9  1  0
  7  8  2  0
 10 11  2  0
 10 12  1  0
 12 13  2  0
 12 14  1  0
 13 16  1  0
 14 15  2  0
 15 17  1  0
 15 20  1  0
 16 17  1  0
 17 18  2  0
 18 19  1  0
 19 20  2  0
M  END
>  <name>  (624) 
Car Nac Nd0 Car Nac Nac Cs2 .=O Cs3 Cs2 .=O Car Car Car Car Nd0 Car Car Car Car

>  <indices>  (624) 
[0, 1, 2]

>  <tasks>  (624) 
probe_placing close_aromatic_ring close_aromatic_ring close_aromatic_ring ring_built build_to_Nac build_DB_to_Cs2 build_SB_to_Cs2 build_to_Nd0 build_DB_to_Cs2 build_SB_to_Cs2 close_aromatic_ring close_aromatic_ring close_aromatic_ring close_aromatic_ring close_aromatic_ring fix_Car close_aromatic_ring

>  <prot_clashes>  (624) 
3

>  <NBS phar>  (624) 
0.22000000000000003

>  <NBS_non-phar>  (624) 
0.3424501657485962

>  <NBS>  (624) 
0.5624501657485963

>  <source_stage>  (624) 
scored

>  <source_iter>  (624) 
17

>  <source_parent_mol>  (624) 
0

>  <source_scenario>  (624) 
1 2 3 1 7 1 0 7 1 1 1 2 1 2 0 4 0

>  <source_rank_in_scored_call>  (624) 
0

>  <source_current_task>  (624) 
close_aromatic_ring

>  <scenario>  (624) 
1 2 3 1 7 1 0 7 1 1 1 2 1 2 0 4

>  <protected_ring_attachments>  (624) 
3,1,0,2|1,0,2;4,5,0,2|5,0,2;12,15,16,17|15,16,17;13,14,16,17|14,16,17

>  <current_task>  (624) 
no_task

>  <rotatable_bond_torsions>  (624) 
1,0,2,9;0,2,9,11;0,5,6,8;2,9,11,12

$$$$

     RDKit          3D

 17 18  0  0  0  0  0  0  0  0999 V2000
  -28.4840   -6.7430  -30.8980 C   0  0  0  0  0  0  0  0  0  0  0  0
  -27.9520   -6.7510  -32.1550 N   0  0  0  0  0  0  0  0  0  0  0  0
  -28.8470   -8.0290  -30.2190 N   0  0  0  0  0  0  0  0  0  0  0  0
  -27.6860   -5.4830  -32.5130 C   0  0  0  0  0  0  0  0  0  0  0  0
  -28.0630   -4.6960  -31.4680 N   0  0  0  0  0  0  0  0  0  0  0  0
  -28.5400   -5.4550  -30.4990 N   0  0  0  0  0  0  0  0  0  0  0  0
  -28.9880   -4.9900  -29.2810 C   0  0  0  0  0  0  0  0  0  0  0  0
  -29.4810   -5.6810  -28.4040 O   0  0  0  0  0  0  0  0  0  0  0  0
  -28.7600   -3.5210  -28.8580 C   0  0  0  0  0  0  0  0  0  0  0  0
  -29.0280   -9.0990  -30.7090 C   0  0  0  0  0  0  0  0  0  0  0  0
  -28.8230   -9.4700  -31.9310 O   0  0  0  0  0  0  0  0  0  0  0  0
  -29.5630  -10.2910  -29.8210 C   0  0  0  0  0  0  0  0  0  0  0  0
  -29.7190  -11.5990  -30.2700 C   0  0  0  0  0  0  0  0  0  0  0  0
  -29.9110   -9.9770  -28.5230 C   0  0  0  0  0  0  0  0  0  0  0  0
  -30.4090  -10.9550  -27.6800 C   0  0  0  0  0  0  0  0  0  0  0  0
  -30.5710  -12.2740  -28.1160 C   0  0  0  0  0  0  0  0  0  0  0  0
  -30.2230  -12.5820  -29.4130 C   0  0  0  0  0  0  0  0  0  0  0  0
  1  2  2  0
  1  6  1  0
  1  3  1  0
  2  4  1  0
  3 10  1  0
  4  5  2  0
  5  6  1  0
  6  7  1  0
  7  9  1  0
  7  8  2  0
 10 11  2  0
 10 12  1  0
 12 13  2  0
 12 14  1  0
 13 17  1  0
 14 15  2  0
 15 16  1  0
 16 17  2  0
M  END
>  <name>  (625) 
Car Nac Nd0 Car Nac Nac Cs2 .=O Cs3 Cs2 .=O Car Car Car Car Car Car

>  <indices>  (625) 
[0, 1, 2]

>  <tasks>  (625) 
probe_placing close_aromatic_ring close_aromatic_ring close_aromatic_ring ring_built build_to_Nac build_DB_to_Cs2 build_SB_to_Cs2 build_to_Nd0 build_DB_to_Cs2 build_SB_to_Cs2 close_aromatic_ring close_aromatic_ring close_aromatic_ring close_aromatic_ring

>  <prot_clashes>  (625) 
3

>  <NBS phar>  (625) 
0.2

>  <NBS_non-phar>  (625) 
0.36620142880608053

>  <NBS>  (625) 
0.5662014288060806

>  <source_stage>  (625) 
scored

>  <source_iter>  (625) 
14

>  <source_parent_mol>  (625) 
3

>  <source_scenario>  (625) 
1 2 3 1 7 1 0 7 1 1 1 2 1 3

>  <source_rank_in_scored_call>  (625) 
1

>  <source_current_task>  (625) 
close_aromatic_ring

>  <scenario>  (625) 
1 2 3 1 7 1 0 7 1 1 1 2 1

>  <protected_ring_attachments>  (625) 
3,1,0,2|1,0,2;4,5,0,2|5,0,2

>  <current_task>  (625) 
no_task

>  <rotatable_bond_torsions>  (625) 
1,0,2,9;0,2,9,11;0,5,6,8;2,9,11,13;9,11,13,14

$$$$

     RDKit          3D

 17 18  0  0  0  0  0  0  0  0999 V2000
  -28.4630   -6.6210  -30.8410 C   0  0  0  0  0  0  0  0  0  0  0  0
  -27.9380   -6.6740  -32.1000 N   0  0  0  0  0  0  0  0  0  0  0  0
  -28.8140   -7.8820  -30.1110 N   0  0  0  0  0  0  0  0  0  0  0  0
  -27.6850   -5.4190  -32.5110 C   0  0  0  0  0  0  0  0  0  0  0  0
  -28.0630   -4.5940  -31.4960 N   0  0  0  0  0  0  0  0  0  0  0  0
  -28.5310   -5.3200  -30.4940 N   0  0  0  0  0  0  0  0  0  0  0  0
  -28.9770   -4.8070  -29.2950 C   0  0  0  0  0  0  0  0  0  0  0  0
  -29.4620   -5.4680  -28.3890 O   0  0  0  0  0  0  0  0  0  0  0  0
  -28.7620   -3.3220  -28.9320 C   0  0  0  0  0  0  0  0  0  0  0  0
  -28.9870   -8.9730  -30.5560 C   0  0  0  0  0  0  0  0  0  0  0  0
  -28.7830   -9.3890  -31.7640 O   0  0  0  0  0  0  0  0  0  0  0  0
  -29.5630  -10.1310  -29.6550 C   0  0  0  0  0  0  0  0  0  0  0  0
  -29.6340  -11.3340  -30.3260 C   0  0  0  0  0  0  0  0  0  0  0  0
  -30.0830  -12.4430  -29.6490 C   0  0  0  0  0  0  0  0  0  0  0  0
  -30.4600  -12.3750  -28.3220 C   0  0  0  0  0  0  0  0  0  0  0  0
  -30.3730  -11.1460  -27.6840 C   0  0  0  0  0  0  0  0  0  0  0  0
  -29.9340  -10.0120  -28.3130 C   0  0  0  0  0  0  0  0  0  0  0  0
  1  2  2  0
  1  6  1  0
  1  3  1  0
  2  4  1  0
  3 10  1  0
  4  5  2  0
  5  6  1  0
  6  7  1  0
  7  9  1  0
  7  8  2  0
 10 11  2  0
 10 12  1  0
 12 13  2  0
 12 17  1  0
 13 14  1  0
 14 15  2  0
 15 16  1  0
 16 17  2  0
M  END
>  <name>  (626) 
Car Nac Nd0 Car Nac Nac Cs2 .=O Cs3 Cs2 .=O Car Car Car Car Car Car

>  <indices>  (626) 
[0, 1, 2]

>  <tasks>  (626) 
probe_placing close_aromatic_ring close_aromatic_ring close_aromatic_ring ring_built build_to_Nac build_DB_to_Cs2 build_SB_to_Cs2 build_to_Nd0 build_DB_to_Cs2 build_SB_to_Cs2 close_aromatic_ring close_aromatic_ring close_aromatic_ring close_aromatic_ring

>  <prot_clashes>  (626) 
2

>  <NBS phar>  (626) 
0.2

>  <NBS_non-phar>  (626) 
0.39068199606502757

>  <NBS>  (626) 
0.5906819960650276

>  <source_stage>  (626) 
scored

>  <source_iter>  (626) 
14

>  <source_parent_mol>  (626) 
0

>  <source_scenario>  (626) 
1 2 3 1 7 1 0 7 1 1 2 0 0 0

>  <source_rank_in_scored_call>  (626) 
0

>  <source_current_task>  (626) 
close_aromatic_ring

>  <scenario>  (626) 
1 2 3 1 7 1 0 7 1 1 2 0 0

>  <protected_ring_attachments>  (626) 
3,1,0,2|1,0,2;4,5,0,2|5,0,2

>  <current_task>  (626) 
no_task

>  <rotatable_bond_torsions>  (626) 
1,0,2,9;0,2,9,11;0,5,6,8;2,9,11,12;9,11,12,13;12,13,14,15

$$$$

     RDKit          3D

 17 18  0  0  0  0  0  0  0  0999 V2000
  -28.4630   -6.5630  -30.8420 C   0  0  0  0  0  0  0  0  0  0  0  0
  -27.9390   -6.6150  -32.1020 N   0  0  0  0  0  0  0  0  0  0  0  0
  -28.8140   -7.8250  -30.1140 N   0  0  0  0  0  0  0  0  0  0  0  0
  -27.6850   -5.3590  -32.5110 C   0  0  0  0  0  0  0  0  0  0  0  0
  -28.0610   -4.5360  -31.4930 N   0  0  0  0  0  0  0  0  0  0  0  0
  -28.5280   -5.2620  -30.4930 N   0  0  0  0  0  0  0  0  0  0  0  0
  -28.9730   -4.7520  -29.2910 C   0  0  0  0  0  0  0  0  0  0  0  0
  -29.4570   -5.4150  -28.3850 O   0  0  0  0  0  0  0  0  0  0  0  0
  -28.7550   -3.2680  -28.9260 C   0  0  0  0  0  0  0  0  0  0  0  0
  -28.9890   -8.9160  -30.5620 C   0  0  0  0  0  0  0  0  0  0  0  0
  -28.7880   -9.3280  -31.7700 O   0  0  0  0  0  0  0  0  0  0  0  0
  -29.5540  -10.0340  -29.6730 C   0  0  0  0  0  0  0  0  0  0  0  0
  -29.6350  -11.2730  -30.3000 C   0  0  0  0  0  0  0  0  0  0  0  0
  -30.0930  -12.3650  -29.6310 C   0  0  0  0  0  0  0  0  0  0  0  0
  -30.4940  -12.3140  -28.3280 C   0  0  0  0  0  0  0  0  0  0  0  0
  -29.9560   -9.9800  -28.3650 C   0  0  0  0  0  0  0  0  0  0  0  0
  -30.4210  -11.0800  -27.6790 C   0  0  0  0  0  0  0  0  0  0  0  0
  1  2  2  0
  1  6  1  0
  1  3  1  0
  2  4  1  0
  3 10  1  0
  4  5  2  0
  5  6  1  0
  6  7  1  0
  7  9  1  0
  7  8  2  0
 10 11  2  0
 10 12  1  0
 12 13  2  0
 12 16  1  0
 13 14  1  0
 14 15  2  0
 15 17  1  0
 16 17  2  0
M  END
>  <name>  (627) 
Car Nac Nd0 Car Nac Nac Cs2 .=O Cs3 Cs2 .=O Car Car Car Car Car Car

>  <indices>  (627) 
[0, 1, 2]

>  <tasks>  (627) 
probe_placing close_aromatic_ring close_aromatic_ring close_aromatic_ring ring_built build_to_Nac build_DB_to_Cs2 build_SB_to_Cs2 build_to_Nd0 build_DB_to_Cs2 build_SB_to_Cs2 close_aromatic_ring close_aromatic_ring close_aromatic_ring close_aromatic_ring

>  <prot_clashes>  (627) 
2

>  <NBS phar>  (627) 
0.2

>  <NBS_non-phar>  (627) 
0.4139672728145824

>  <NBS>  (627) 
0.6139672728145824

>  <source_stage>  (627) 
scored

>  <source_iter>  (627) 
14

>  <source_parent_mol>  (627) 
2

>  <source_scenario>  (627) 
1 2 3 1 7 1 0 7 1 1 2 0 0 2

>  <source_rank_in_scored_call>  (627) 
0

>  <source_current_task>  (627) 
close_aromatic_ring

>  <scenario>  (627) 
1 2 3 1 7 1 0 7 1 1 2 0 0

>  <protected_ring_attachments>  (627) 
3,1,0,2|1,0,2;4,5,0,2|5,0,2

>  <current_task>  (627) 
no_task

>  <rotatable_bond_torsions>  (627) 
1,0,2,9;0,2,9,11;0,5,6,8;2,9,11,12;9,11,12,13

$$$$

     RDKit          3D

 17 18  0  0  0  0  0  0  0  0999 V2000
  -28.4880   -6.6510  -30.8480 C   0  0  0  0  0  0  0  0  0  0  0  0
  -27.9410   -6.7200  -32.0950 N   0  0  0  0  0  0  0  0  0  0  0  0
  -28.8590   -7.9030  -30.1110 N   0  0  0  0  0  0  0  0  0  0  0  0
  -27.6720   -5.4710  -32.5130 C   0  0  0  0  0  0  0  0  0  0  0  0
  -28.0640   -4.6350  -31.5110 N   0  0  0  0  0  0  0  0  0  0  0  0
  -28.5510   -5.3460  -30.5140 N   0  0  0  0  0  0  0  0  0  0  0  0
  -29.0160   -4.8210  -29.3250 C   0  0  0  0  0  0  0  0  0  0  0  0
  -29.5200   -5.4700  -28.4210 O   0  0  0  0  0  0  0  0  0  0  0  0
  -28.7950   -3.3330  -28.9720 C   0  0  0  0  0  0  0  0  0  0  0  0
  -29.0330   -8.9970  -30.5500 C   0  0  0  0  0  0  0  0  0  0  0  0
  -28.8120   -9.4250  -31.7500 O   0  0  0  0  0  0  0  0  0  0  0  0
  -29.6180  -10.1500  -29.6250 C   0  0  0  0  0  0  0  0  0  0  0  0
  -29.4050   -9.9880  -28.2600 C   0  0  0  0  0  0  0  0  0  0  0  0
  -29.8600  -10.9400  -27.3550 C   0  0  0  0  0  0  0  0  0  0  0  0
  -30.5190  -12.0290  -27.8600 C   0  0  0  0  0  0  0  0  0  0  0  0
  -30.7280  -12.1870  -29.2050 C   0  0  0  0  0  0  0  0  0  0  0  0
  -30.2810  -11.2550  -30.0840 C   0  0  0  0  0  0  0  0  0  0  0  0
  1  2  2  0
  1  6  1  0
  1  3  1  0
  2  4  1  0
  3 10  1  0
  4  5  2  0
  5  6  1  0
  6  7  1  0
  7  9  1  0
  7  8  2  0
 10 11  2  0
 10 12  1  0
 12 17  1  0
 12 13  2  0
 13 14  1  0
 14 15  2  0
 15 16  1  0
 16 17  2  0
M  END
>  <name>  (628) 
Car Nac Nd0 Car Nac Nac Cs2 .=O Cs3 Cs2 .=O Car Car Car Car Car Car

>  <indices>  (628) 
[0, 1, 2]

>  <tasks>  (628) 
probe_placing close_aromatic_ring close_aromatic_ring close_aromatic_ring ring_built build_to_Nac build_DB_to_Cs2 build_SB_to_Cs2 build_to_Nd0 build_DB_to_Cs2 build_SB_to_Cs2 close_aromatic_ring close_aromatic_ring close_aromatic_ring close_aromatic_ring

>  <prot_clashes>  (628) 
4

>  <NBS phar>  (628) 
0.2

>  <NBS_non-phar>  (628) 
0.3618929806877585

>  <NBS>  (628) 
0.5618929806877585

>  <source_stage>  (628) 
scored

>  <source_iter>  (628) 
14

>  <source_parent_mol>  (628) 
1

>  <source_scenario>  (628) 
1 2 3 1 7 1 0 7 1 1 4 5 0 1

>  <source_rank_in_scored_call>  (628) 
0

>  <source_current_task>  (628) 
close_aromatic_ring

>  <scenario>  (628) 
1 2 3 1 7 1 0 7 1 1 4 5 0

>  <protected_ring_attachments>  (628) 
3,1,0,2|1,0,2;4,5,0,2|5,0,2

>  <current_task>  (628) 
no_task

>  <rotatable_bond_torsions>  (628) 
1,0,2,9;0,2,9,11;0,5,6,8;2,9,11,12;9,11,12,13;12,13,14,15

$$$$

     RDKit          3D

 17 18  0  0  0  0  0  0  0  0999 V2000
  -28.5180   -6.6470  -30.8460 C   0  0  0  0  0  0  0  0  0  0  0  0
  -27.9580   -6.7180  -32.0880 N   0  0  0  0  0  0  0  0  0  0  0  0
  -28.9120   -7.8990  -30.1190 N   0  0  0  0  0  0  0  0  0  0  0  0
  -27.6700   -5.4700  -32.4970 C   0  0  0  0  0  0  0  0  0  0  0  0
  -28.0630   -4.6330  -31.4960 N   0  0  0  0  0  0  0  0  0  0  0  0
  -28.5700   -5.3430  -30.5070 N   0  0  0  0  0  0  0  0  0  0  0  0
  -29.0420   -4.8180  -29.3220 C   0  0  0  0  0  0  0  0  0  0  0  0
  -29.5630   -5.4640  -28.4260 O   0  0  0  0  0  0  0  0  0  0  0  0
  -28.8080   -3.3340  -28.9600 C   0  0  0  0  0  0  0  0  0  0  0  0
  -29.0940   -8.9890  -30.5640 C   0  0  0  0  0  0  0  0  0  0  0  0
  -28.8640   -9.4140  -31.7630 O   0  0  0  0  0  0  0  0  0  0  0  0
  -29.5430  -10.2010  -29.6190 C   0  0  0  0  0  0  0  0  0  0  0  0
  -29.4870   -9.9620  -28.2430 C   0  0  0  0  0  0  0  0  0  0  0  0
  -30.0410  -10.8850  -27.3720 C   0  0  0  0  0  0  0  0  0  0  0  0
  -30.6570  -12.0510  -27.8390 C   0  0  0  0  0  0  0  0  0  0  0  0
  -30.6860  -12.2370  -29.2150 C   0  0  0  0  0  0  0  0  0  0  0  0
  -30.1480  -11.3440  -30.0770 C   0  0  0  0  0  0  0  0  0  0  0  0
  1  2  2  0
  1  6  1  0
  1  3  1  0
  2  4  1  0
  3 10  1  0
  4  5  2  0
  5  6  1  0
  6  7  1  0
  7  9  1  0
  7  8  2  0
 10 11  2  0
 10 12  1  0
 12 17  1  0
 12 13  2  0
 13 14  1  0
 14 15  2  0
 15 16  1  0
 16 17  2  0
M  END
>  <name>  (629) 
Car Nac Nd0 Car Nac Nac Cs2 .=O Cs3 Cs2 .=O Car Car Car Car Car Car

>  <indices>  (629) 
[0, 1, 2]

>  <tasks>  (629) 
probe_placing close_aromatic_ring close_aromatic_ring close_aromatic_ring ring_built build_to_Nac build_DB_to_Cs2 build_SB_to_Cs2 build_to_Nd0 build_DB_to_Cs2 build_SB_to_Cs2 close_aromatic_ring close_aromatic_ring close_aromatic_ring close_aromatic_ring

>  <prot_clashes>  (629) 
4

>  <NBS phar>  (629) 
0.2

>  <NBS_non-phar>  (629) 
0.35458937813253966

>  <NBS>  (629) 
0.5545893781325397

>  <source_stage>  (629) 
scored

>  <source_iter>  (629) 
14

>  <source_parent_mol>  (629) 
1

>  <source_scenario>  (629) 
1 2 3 1 7 1 0 7 1 1 4 5 0 1

>  <source_rank_in_scored_call>  (629) 
1

>  <source_current_task>  (629) 
close_aromatic_ring

>  <scenario>  (629) 
1 2 3 1 7 1 0 7 1 1 4 5 0

>  <protected_ring_attachments>  (629) 
3,1,0,2|1,0,2;4,5,0,2|5,0,2

>  <current_task>  (629) 
no_task

>  <rotatable_bond_torsions>  (629) 
1,0,2,9;0,2,9,11;0,5,6,8;2,9,11,12;9,11,12,13;12,13,14,15

$$$$

     RDKit          3D

 18 19  0  0  0  0  0  0  0  0999 V2000
  -28.4710   -6.6060  -30.8430 C   0  0  0  0  0  0  0  0  0  0  0  0
  -27.9460   -6.6640  -32.1000 N   0  0  0  0  0  0  0  0  0  0  0  0
  -28.8280   -7.8640  -30.1100 N   0  0  0  0  0  0  0  0  0  0  0  0
  -27.6850   -5.4110  -32.5120 C   0  0  0  0  0  0  0  0  0  0  0  0
  -28.0600   -4.5840  -31.4960 N   0  0  0  0  0  0  0  0  0  0  0  0
  -28.5290   -5.3040  -30.4970 N   0  0  0  0  0  0  0  0  0  0  0  0
  -28.9730   -4.7890  -29.2960 C   0  0  0  0  0  0  0  0  0  0  0  0
  -29.4610   -5.4460  -28.3880 O   0  0  0  0  0  0  0  0  0  0  0  0
  -28.7470   -3.3040  -28.9340 C   0  0  0  0  0  0  0  0  0  0  0  0
  -29.0090   -8.9540  -30.5550 C   0  0  0  0  0  0  0  0  0  0  0  0
  -28.8090   -9.3720  -31.7630 O   0  0  0  0  0  0  0  0  0  0  0  0
  -29.5770  -10.1160  -29.6300 C   0  0  0  0  0  0  0  0  0  0  0  0
  -29.3400   -9.9650  -28.2680 C   0  0  0  0  0  0  0  0  0  0  0  0
  -29.7790  -10.9250  -27.3630 C   0  0  0  0  0  0  0  0  0  0  0  0
  -30.4460  -12.0100  -27.8650 C   0  0  0  0  0  0  0  0  0  0  0  0
  -30.6780  -12.1570  -29.2080 C   0  0  0  0  0  0  0  0  0  0  0  0
  -30.2470  -11.2170  -30.0870 C   0  0  0  0  0  0  0  0  0  0  0  0
  -29.0080   -2.3160  -30.0730 C   0  0  0  0  0  0  0  0  0  0  0  0
  1  2  2  0
  1  6  1  0
  1  3  1  0
  2  4  1  0
  3 10  1  0
  4  5  2  0
  5  6  1  0
  6  7  1  0
  7  9  1  0
  7  8  2  0
 10 11  2  0
 10 12  1  0
 12 17  1  0
 12 13  2  0
 13 14  1  0
 14 15  2  0
 15 16  1  0
 16 17  2  0
  9 18  1  0
M  END
>  <name>  (630) 
Car Nac Nd0 Car Nac Nac Cs2 .=O Cs3 Cs2 .=O Car Car Car Car Car Car Cs3

>  <indices>  (630) 
[0, 1, 2]

>  <tasks>  (630) 
probe_placing close_aromatic_ring close_aromatic_ring close_aromatic_ring ring_built build_to_Nac build_DB_to_Cs2 build_SB_to_Cs2 build_to_Nd0 build_DB_to_Cs2 build_SB_to_Cs2 close_aromatic_ring close_aromatic_ring close_aromatic_ring close_aromatic_ring close_aromatic_ring

>  <prot_clashes>  (630) 
2

>  <NBS phar>  (630) 
0.22000000000000003

>  <NBS_non-phar>  (630) 
0.4207943280537923

>  <NBS>  (630) 
0.6407943280537923

>  <source_stage>  (630) 
scored

>  <source_iter>  (630) 
15

>  <source_parent_mol>  (630) 
0

>  <source_scenario>  (630) 
1 2 3 1 7 1 0 7 1 1 4 5 0 1 0

>  <source_rank_in_scored_call>  (630) 
5

>  <source_current_task>  (630) 
no_task

>  <scenario>  (630) 
1 2 3 1 7 1 0 7 1 1 4 5 0 1

>  <protected_ring_attachments>  (630) 
3,1,0,2|1,0,2;4,5,0,2|5,0,2

>  <current_task>  (630) 
no_task

>  <rotatable_bond_torsions>  (630) 
1,0,2,9;0,2,9,11;0,5,6,8;2,9,11,12

$$$$

     RDKit          3D

 18 19  0  0  0  0  0  0  0  0999 V2000
  -28.4450   -6.5530  -30.7810 C   0  0  0  0  0  0  0  0  0  0  0  0
  -27.9120   -6.6890  -32.0290 N   0  0  0  0  0  0  0  0  0  0  0  0
  -28.8150   -7.7640  -29.9770 N   0  0  0  0  0  0  0  0  0  0  0  0
  -27.6410   -5.4650  -32.5130 C   0  0  0  0  0  0  0  0  0  0  0  0
  -28.0180   -4.5760  -31.5510 N   0  0  0  0  0  0  0  0  0  0  0  0
  -28.4980   -5.2320  -30.5140 N   0  0  0  0  0  0  0  0  0  0  0  0
  -28.9470   -4.6450  -29.3490 C   0  0  0  0  0  0  0  0  0  0  0  0
  -29.4450   -5.2430  -28.4070 O   0  0  0  0  0  0  0  0  0  0  0  0
  -28.7150   -3.1420  -29.0750 C   0  0  0  0  0  0  0  0  0  0  0  0
  -28.9990   -8.8780  -30.3580 C   0  0  0  0  0  0  0  0  0  0  0  0
  -28.7930   -9.3680  -31.5360 O   0  0  0  0  0  0  0  0  0  0  0  0
  -29.5800   -9.9780  -29.3690 C   0  0  0  0  0  0  0  0  0  0  0  0
  -29.3520   -9.7480  -28.0160 C   0  0  0  0  0  0  0  0  0  0  0  0
  -29.8020  -10.6490  -27.0590 C   0  0  0  0  0  0  0  0  0  0  0  0
  -30.4720  -11.7590  -27.5000 C   0  0  0  0  0  0  0  0  0  0  0  0
  -30.6960  -11.9850  -28.8330 C   0  0  0  0  0  0  0  0  0  0  0  0
  -30.2540  -11.1020  -29.7630 C   0  0  0  0  0  0  0  0  0  0  0  0
  -29.1580   -2.6960  -27.7180 C   0  0  0  0  0  0  0  0  0  0  0  0
  1  2  2  0
  1  6  1  0
  1  3  1  0
  2  4  1  0
  3 10  1  0
  4  5  2  0
  5  6  1  0
  6  7  1  0
  7  9  1  0
  7  8  2  0
 10 11  2  0
 10 12  1  0
 12 17  1  0
 12 13  2  0
 13 14  1  0
 14 15  2  0
 15 16  1  0
 16 17  2  0
  9 18  1  0
M  END
>  <name>  (631) 
Car Nac Nd0 Car Nac Nac Cs2 .=O Cs3 Cs2 .=O Car Car Car Car Car Car Cs3

>  <indices>  (631) 
[0, 1, 2]

>  <tasks>  (631) 
probe_placing close_aromatic_ring close_aromatic_ring close_aromatic_ring ring_built build_to_Nac build_DB_to_Cs2 build_SB_to_Cs2 build_to_Nd0 build_DB_to_Cs2 build_SB_to_Cs2 close_aromatic_ring close_aromatic_ring close_aromatic_ring close_aromatic_ring close_aromatic_ring

>  <prot_clashes>  (631) 
5

>  <NBS phar>  (631) 
0.22000000000000003

>  <NBS_non-phar>  (631) 
0.40349917941623265

>  <NBS>  (631) 
0.6234991794162327

>  <source_stage>  (631) 
scored

>  <source_iter>  (631) 
15

>  <source_parent_mol>  (631) 
0

>  <source_scenario>  (631) 
1 2 3 1 7 1 0 7 1 1 4 5 0 1 0

>  <source_rank_in_scored_call>  (631) 
8

>  <source_current_task>  (631) 
no_task

>  <scenario>  (631) 
1 2 3 1 7 1 0 7 1 1 4 5 0 1

>  <protected_ring_attachments>  (631) 
3,1,0,2|1,0,2;4,5,0,2|5,0,2

>  <current_task>  (631) 
no_task

>  <rotatable_bond_torsions>  (631) 
1,0,2,9;0,2,9,11;0,5,6,8;2,9,11,12

$$$$

     RDKit          3D

 18 19  0  0  0  0  0  0  0  0999 V2000
  -28.4620   -6.5320  -30.7840 C   0  0  0  0  0  0  0  0  0  0  0  0
  -27.9120   -6.6690  -32.0240 N   0  0  0  0  0  0  0  0  0  0  0  0
  -28.8240   -7.7420  -29.9760 N   0  0  0  0  0  0  0  0  0  0  0  0
  -27.6520   -5.4440  -32.5130 C   0  0  0  0  0  0  0  0  0  0  0  0
  -28.0520   -4.5540  -31.5620 N   0  0  0  0  0  0  0  0  0  0  0  0
  -28.5350   -5.2100  -30.5260 N   0  0  0  0  0  0  0  0  0  0  0  0
  -29.0050   -4.6210  -29.3700 C   0  0  0  0  0  0  0  0  0  0  0  0
  -29.5060   -5.2200  -28.4300 O   0  0  0  0  0  0  0  0  0  0  0  0
  -28.7960   -3.1130  -29.1030 C   0  0  0  0  0  0  0  0  0  0  0  0
  -28.9890   -8.8610  -30.3510 C   0  0  0  0  0  0  0  0  0  0  0  0
  -28.7640   -9.3560  -31.5240 O   0  0  0  0  0  0  0  0  0  0  0  0
  -29.5670   -9.9630  -29.3610 C   0  0  0  0  0  0  0  0  0  0  0  0
  -29.3570   -9.7200  -28.0080 C   0  0  0  0  0  0  0  0  0  0  0  0
  -29.8070  -10.6220  -27.0500 C   0  0  0  0  0  0  0  0  0  0  0  0
  -30.4570  -11.7430  -27.4910 C   0  0  0  0  0  0  0  0  0  0  0  0
  -30.6630  -11.9800  -28.8250 C   0  0  0  0  0  0  0  0  0  0  0  0
  -30.2210  -11.0970  -29.7560 C   0  0  0  0  0  0  0  0  0  0  0  0
  -28.8730   -2.8460  -27.6650 C   0  0  0  0  0  0  0  0  0  0  0  0
  1  2  2  0
  1  6  1  0
  1  3  1  0
  2  4  1  0
  3 10  1  0
  4  5  2  0
  5  6  1  0
  6  7  1  0
  7  9  1  0
  7  8  2  0
 10 11  2  0
 10 12  1  0
 12 17  1  0
 12 13  2  0
 13 14  1  0
 14 15  2  0
 15 16  1  0
 16 17  2  0
  9 18  1  0
M  END
>  <name>  (632) 
Car Nac Nd0 Car Nac Nac Cs2 .=O Cs3 Cs2 .=O Car Car Car Car Car Car Cs3

>  <indices>  (632) 
[0, 1, 2]

>  <tasks>  (632) 
probe_placing close_aromatic_ring close_aromatic_ring close_aromatic_ring ring_built build_to_Nac build_DB_to_Cs2 build_SB_to_Cs2 build_to_Nd0 build_DB_to_Cs2 build_SB_to_Cs2 close_aromatic_ring close_aromatic_ring close_aromatic_ring close_aromatic_ring close_aromatic_ring

>  <prot_clashes>  (632) 
4

>  <NBS phar>  (632) 
0.22000000000000003

>  <NBS_non-phar>  (632) 
0.40263403786553276

>  <NBS>  (632) 
0.6226340378655328

>  <source_stage>  (632) 
scored

>  <source_iter>  (632) 
15

>  <source_parent_mol>  (632) 
0

>  <source_scenario>  (632) 
1 2 3 1 7 1 0 7 1 1 4 5 0 1 0

>  <source_rank_in_scored_call>  (632) 
9

>  <source_current_task>  (632) 
no_task

>  <scenario>  (632) 
1 2 3 1 7 1 0 7 1 1 4 5 0 1

>  <protected_ring_attachments>  (632) 
3,1,0,2|1,0,2;4,5,0,2|5,0,2

>  <current_task>  (632) 
no_task

>  <rotatable_bond_torsions>  (632) 
1,0,2,9;0,2,9,11;0,5,6,8;2,9,11,12

$$$$

     RDKit          3D

 18 19  0  0  0  0  0  0  0  0999 V2000
  -28.4240   -6.6490  -30.8750 C   0  0  0  0  0  0  0  0  0  0  0  0
  -28.0000   -6.7730  -32.1640 N   0  0  0  0  0  0  0  0  0  0  0  0
  -28.8080   -7.8610  -30.0810 N   0  0  0  0  0  0  0  0  0  0  0  0
  -27.6880   -5.5520  -32.6320 C   0  0  0  0  0  0  0  0  0  0  0  0
  -27.9300   -4.6760  -31.6160 N   0  0  0  0  0  0  0  0  0  0  0  0
  -28.3690   -5.3370  -30.5640 N   0  0  0  0  0  0  0  0  0  0  0  0
  -28.6870   -4.7640  -29.3490 C   0  0  0  0  0  0  0  0  0  0  0  0
  -29.1480   -5.3630  -28.3900 O   0  0  0  0  0  0  0  0  0  0  0  0
  -28.3370   -3.2890  -29.0500 C   0  0  0  0  0  0  0  0  0  0  0  0
  -29.0940   -8.9470  -30.4790 C   0  0  0  0  0  0  0  0  0  0  0  0
  -29.0130   -9.4070  -31.6840 O   0  0  0  0  0  0  0  0  0  0  0  0
  -29.6660  -10.0440  -29.4800 C   0  0  0  0  0  0  0  0  0  0  0  0
  -29.3180   -9.8760  -28.1440 C   0  0  0  0  0  0  0  0  0  0  0  0
  -29.7500  -10.7810  -27.1810 C   0  0  0  0  0  0  0  0  0  0  0  0
  -30.5240  -11.8300  -27.6010 C   0  0  0  0  0  0  0  0  0  0  0  0
  -30.8650  -11.9940  -28.9180 C   0  0  0  0  0  0  0  0  0  0  0  0
  -30.4400  -11.1080  -29.8530 C   0  0  0  0  0  0  0  0  0  0  0  0
  -29.1880   -2.6120  -28.0000 C   0  0  0  0  0  0  0  0  0  0  0  0
  1  2  2  0
  1  6  1  0
  1  3  1  0
  2  4  1  0
  3 10  1  0
  4  5  2  0
  5  6  1  0
  6  7  1  0
  7  9  1  0
  7  8  2  0
 10 11  2  0
 10 12  1  0
 12 17  1  0
 12 13  2  0
 13 14  1  0
 14 15  2  0
 15 16  1  0
 16 17  2  0
  9 18  1  0
M  END
>  <name>  (633) 
Car Nac Nd0 Car Nac Nac Cs2 .=O Cs3 Cs2 .=O Car Car Car Car Car Car Cs3

>  <indices>  (633) 
[0, 1, 2]

>  <tasks>  (633) 
probe_placing close_aromatic_ring close_aromatic_ring close_aromatic_ring ring_built build_to_Nac build_DB_to_Cs2 build_SB_to_Cs2 build_to_Nd0 build_DB_to_Cs2 build_SB_to_Cs2 close_aromatic_ring close_aromatic_ring close_aromatic_ring close_aromatic_ring close_aromatic_ring

>  <prot_clashes>  (633) 
7

>  <NBS phar>  (633) 
0.22000000000000003

>  <NBS_non-phar>  (633) 
0.39747534857855904

>  <NBS>  (633) 
0.6174753485785591

>  <source_stage>  (633) 
scored

>  <source_iter>  (633) 
15

>  <source_parent_mol>  (633) 
0

>  <source_scenario>  (633) 
1 2 3 1 7 1 0 7 1 1 4 5 0 1 0

>  <source_rank_in_scored_call>  (633) 
12

>  <source_current_task>  (633) 
no_task

>  <scenario>  (633) 
1 2 3 1 7 1 0 7 1 1 4 5 0 1

>  <protected_ring_attachments>  (633) 
3,1,0,2|1,0,2;4,5,0,2|5,0,2

>  <current_task>  (633) 
no_task

>  <rotatable_bond_torsions>  (633) 
1,0,2,9;0,2,9,11;0,5,6,8;2,9,11,12

$$$$

     RDKit          3D

 18 19  0  0  0  0  0  0  0  0999 V2000
  -28.4590   -6.5620  -30.8110 C   0  0  0  0  0  0  0  0  0  0  0  0
  -27.8830   -6.6010  -32.0450 N   0  0  0  0  0  0  0  0  0  0  0  0
  -28.8280   -7.8330  -30.1040 N   0  0  0  0  0  0  0  0  0  0  0  0
  -27.6230   -5.3410  -32.4350 C   0  0  0  0  0  0  0  0  0  0  0  0
  -28.0510   -4.5290  -31.4280 N   0  0  0  0  0  0  0  0  0  0  0  0
  -28.5500   -5.2650  -30.4550 N   0  0  0  0  0  0  0  0  0  0  0  0
  -29.0500   -4.7680  -29.2690 C   0  0  0  0  0  0  0  0  0  0  0  0
  -29.5650   -5.4400  -28.3880 O   0  0  0  0  0  0  0  0  0  0  0  0
  -28.8600   -3.2830  -28.8850 C   0  0  0  0  0  0  0  0  0  0  0  0
  -28.9750   -8.9210  -30.5660 C   0  0  0  0  0  0  0  0  0  0  0  0
  -28.7200   -9.3240  -31.7680 O   0  0  0  0  0  0  0  0  0  0  0  0
  -29.5640  -10.0990  -29.6760 C   0  0  0  0  0  0  0  0  0  0  0  0
  -29.3850   -9.9580  -28.3030 C   0  0  0  0  0  0  0  0  0  0  0  0
  -29.8460  -10.9330  -27.4260 C   0  0  0  0  0  0  0  0  0  0  0  0
  -30.4760  -12.0220  -27.9650 C   0  0  0  0  0  0  0  0  0  0  0  0
  -30.6520  -12.1590  -29.3170 C   0  0  0  0  0  0  0  0  0  0  0  0
  -30.1990  -11.2050  -30.1690 C   0  0  0  0  0  0  0  0  0  0  0  0
  -27.4830   -2.9100  -28.4200 C   0  0  0  0  0  0  0  0  0  0  0  0
  1  2  2  0
  1  6  1  0
  1  3  1  0
  2  4  1  0
  3 10  1  0
  4  5  2  0
  5  6  1  0
  6  7  1  0
  7  9  1  0
  7  8  2  0
 10 11  2  0
 10 12  1  0
 12 17  1  0
 12 13  2  0
 13 14  1  0
 14 15  2  0
 15 16  1  0
 16 17  2  0
  9 18  1  0
M  END
>  <name>  (634) 
Car Nac Nd0 Car Nac Nac Cs2 .=O Cs3 Cs2 .=O Car Car Car Car Car Car Cs3

>  <indices>  (634) 
[0, 1, 2]

>  <tasks>  (634) 
probe_placing close_aromatic_ring close_aromatic_ring close_aromatic_ring ring_built build_to_Nac build_DB_to_Cs2 build_SB_to_Cs2 build_to_Nd0 build_DB_to_Cs2 build_SB_to_Cs2 close_aromatic_ring close_aromatic_ring close_aromatic_ring close_aromatic_ring close_aromatic_ring

>  <prot_clashes>  (634) 
2

>  <NBS phar>  (634) 
0.22000000000000003

>  <NBS_non-phar>  (634) 
0.38639402389526367

>  <NBS>  (634) 
0.6063940238952636

>  <source_stage>  (634) 
scored

>  <source_iter>  (634) 
15

>  <source_parent_mol>  (634) 
0

>  <source_scenario>  (634) 
1 2 3 1 7 1 0 7 1 1 4 5 0 1 0

>  <source_rank_in_scored_call>  (634) 
25

>  <source_current_task>  (634) 
no_task

>  <scenario>  (634) 
1 2 3 1 7 1 0 7 1 1 4 5 0 1

>  <protected_ring_attachments>  (634) 
3,1,0,2|1,0,2;4,5,0,2|5,0,2

>  <current_task>  (634) 
no_task

>  <rotatable_bond_torsions>  (634) 
1,0,2,9;0,2,9,11;0,5,6,8;2,9,11,12

$$$$

     RDKit          3D

 18 19  0  0  0  0  0  0  0  0999 V2000
  -28.3770   -6.5790  -30.8440 C   0  0  0  0  0  0  0  0  0  0  0  0
  -27.8940   -6.6920  -32.1140 N   0  0  0  0  0  0  0  0  0  0  0  0
  -28.7930   -7.7980  -30.0780 N   0  0  0  0  0  0  0  0  0  0  0  0
  -27.5640   -5.4670  -32.5570 C   0  0  0  0  0  0  0  0  0  0  0  0
  -27.8540   -4.6000  -31.5470 N   0  0  0  0  0  0  0  0  0  0  0  0
  -28.3390   -5.2700  -30.5210 N   0  0  0  0  0  0  0  0  0  0  0  0
  -28.7130   -4.7070  -29.3180 C   0  0  0  0  0  0  0  0  0  0  0  0
  -29.2160   -5.3150  -28.3850 O   0  0  0  0  0  0  0  0  0  0  0  0
  -28.3800   -3.2340  -28.9900 C   0  0  0  0  0  0  0  0  0  0  0  0
  -29.0580   -8.8820  -30.4970 C   0  0  0  0  0  0  0  0  0  0  0  0
  -28.9210   -9.3320  -31.7020 O   0  0  0  0  0  0  0  0  0  0  0  0
  -29.6730   -9.9880  -29.5350 C   0  0  0  0  0  0  0  0  0  0  0  0
  -29.3870   -9.8300  -28.1830 C   0  0  0  0  0  0  0  0  0  0  0  0
  -29.8600  -10.7440  -27.2480 C   0  0  0  0  0  0  0  0  0  0  0  0
  -30.6110  -11.7910  -27.7110 C   0  0  0  0  0  0  0  0  0  0  0  0
  -30.8920  -11.9450  -29.0430 C   0  0  0  0  0  0  0  0  0  0  0  0
  -30.4270  -11.0500  -29.9520 C   0  0  0  0  0  0  0  0  0  0  0  0
  -29.5580   -2.3040  -28.9750 C   0  0  0  0  0  0  0  0  0  0  0  0
  1  2  2  0
  1  6  1  0
  1  3  1  0
  2  4  1  0
  3 10  1  0
  4  5  2  0
  5  6  1  0
  6  7  1  0
  7  9  1  0
  7  8  2  0
 10 11  2  0
 10 12  1  0
 12 17  1  0
 12 13  2  0
 13 14  1  0
 14 15  2  0
 15 16  1  0
 16 17  2  0
  9 18  1  0
M  END
>  <name>  (635) 
Car Nac Nd0 Car Nac Nac Cs2 .=O Cs3 Cs2 .=O Car Car Car Car Car Car Cs3

>  <indices>  (635) 
[0, 1, 2]

>  <tasks>  (635) 
probe_placing close_aromatic_ring close_aromatic_ring close_aromatic_ring ring_built build_to_Nac build_DB_to_Cs2 build_SB_to_Cs2 build_to_Nd0 build_DB_to_Cs2 build_SB_to_Cs2 close_aromatic_ring close_aromatic_ring close_aromatic_ring close_aromatic_ring close_aromatic_ring

>  <prot_clashes>  (635) 
7

>  <NBS phar>  (635) 
0.22000000000000003

>  <NBS_non-phar>  (635) 
0.38178327348497176

>  <NBS>  (635) 
0.6017832734849717

>  <source_stage>  (635) 
scored

>  <source_iter>  (635) 
15

>  <source_parent_mol>  (635) 
0

>  <source_scenario>  (635) 
1 2 3 1 7 1 0 7 1 1 4 5 0 1 0

>  <source_rank_in_scored_call>  (635) 
26

>  <source_current_task>  (635) 
no_task

>  <scenario>  (635) 
1 2 3 1 7 1 0 7 1 1 4 5 0 1

>  <protected_ring_attachments>  (635) 
3,1,0,2|1,0,2;4,5,0,2|5,0,2

>  <current_task>  (635) 
no_task

>  <rotatable_bond_torsions>  (635) 
1,0,2,9;0,2,9,11;0,5,6,8;2,9,11,12

$$$$

     RDKit          3D

 18 19  0  0  0  0  0  0  0  0999 V2000
  -28.3410   -6.5410  -30.8440 C   0  0  0  0  0  0  0  0  0  0  0  0
  -27.8170   -6.6200  -32.1000 N   0  0  0  0  0  0  0  0  0  0  0  0
  -28.7550   -7.7840  -30.1150 N   0  0  0  0  0  0  0  0  0  0  0  0
  -27.5010   -5.3790  -32.5090 C   0  0  0  0  0  0  0  0  0  0  0  0
  -27.8400   -4.5380  -31.4920 N   0  0  0  0  0  0  0  0  0  0  0  0
  -28.3420   -5.2390  -30.4950 N   0  0  0  0  0  0  0  0  0  0  0  0
  -28.7650   -4.7080  -29.2930 C   0  0  0  0  0  0  0  0  0  0  0  0
  -29.2830   -5.3440  -28.3880 O   0  0  0  0  0  0  0  0  0  0  0  0
  -28.4740   -3.2350  -28.9280 C   0  0  0  0  0  0  0  0  0  0  0  0
  -28.9840   -8.8650  -30.5630 C   0  0  0  0  0  0  0  0  0  0  0  0
  -28.8000   -9.2880  -31.7700 O   0  0  0  0  0  0  0  0  0  0  0  0
  -29.6040  -10.0020  -29.6410 C   0  0  0  0  0  0  0  0  0  0  0  0
  -29.3630   -9.8650  -28.2780 C   0  0  0  0  0  0  0  0  0  0  0  0
  -29.8450  -10.8060  -27.3760 C   0  0  0  0  0  0  0  0  0  0  0  0
  -30.5590  -11.8600  -27.8820 C   0  0  0  0  0  0  0  0  0  0  0  0
  -30.7950  -11.9930  -29.2250 C   0  0  0  0  0  0  0  0  0  0  0  0
  -30.3220  -11.0710  -30.1010 C   0  0  0  0  0  0  0  0  0  0  0  0
  -29.2040   -2.2970  -29.9090 C   0  0  0  0  0  0  0  0  0  0  0  0
  1  2  2  0
  1  6  1  0
  1  3  1  0
  2  4  1  0
  3 10  1  0
  4  5  2  0
  5  6  1  0
  6  7  1  0
  7  9  1  0
  7  8  2  0
 10 11  2  0
 10 12  1  0
 12 17  1  0
 12 13  2  0
 13 14  1  0
 14 15  2  0
 15 16  1  0
 16 17  2  0
  9 18  1  0
M  END
>  <name>  (636) 
Car Nac Nd0 Car Nac Nac Cs2 .=O Cs3 Cs2 .=O Car Car Car Car Car Car Cs3

>  <indices>  (636) 
[0, 1, 2]

>  <tasks>  (636) 
probe_placing close_aromatic_ring close_aromatic_ring close_aromatic_ring ring_built build_to_Nac build_DB_to_Cs2 build_SB_to_Cs2 build_to_Nd0 build_DB_to_Cs2 build_SB_to_Cs2 close_aromatic_ring close_aromatic_ring close_aromatic_ring close_aromatic_ring close_aromatic_ring

>  <prot_clashes>  (636) 
3

>  <NBS phar>  (636) 
0.24000000000000005

>  <NBS_non-phar>  (636) 
0.3580152458614773

>  <NBS>  (636) 
0.5980152458614774

>  <source_stage>  (636) 
scored

>  <source_iter>  (636) 
15

>  <source_parent_mol>  (636) 
0

>  <source_scenario>  (636) 
1 2 3 1 7 1 0 7 1 1 4 5 0 1 0

>  <source_rank_in_scored_call>  (636) 
29

>  <source_current_task>  (636) 
no_task

>  <scenario>  (636) 
1 2 3 1 7 1 0 7 1 1 4 5 0 1

>  <protected_ring_attachments>  (636) 
3,1,0,2|1,0,2;4,5,0,2|5,0,2

>  <current_task>  (636) 
no_task

>  <rotatable_bond_torsions>  (636) 
1,0,2,9;0,2,9,11;0,5,6,8;2,9,11,12

$$$$

     RDKit          3D

 18 19  0  0  0  0  0  0  0  0999 V2000
  -28.4910   -6.6490  -30.8450 C   0  0  0  0  0  0  0  0  0  0  0  0
  -27.9350   -6.7260  -32.0880 N   0  0  0  0  0  0  0  0  0  0  0  0
  -28.8670   -7.8960  -30.1030 N   0  0  0  0  0  0  0  0  0  0  0  0
  -27.6630   -5.4790  -32.5120 C   0  0  0  0  0  0  0  0  0  0  0  0
  -28.0630   -4.6370  -31.5180 N   0  0  0  0  0  0  0  0  0  0  0  0
  -28.5570   -5.3420  -30.5200 N   0  0  0  0  0  0  0  0  0  0  0  0
  -29.0310   -4.8090  -29.3380 C   0  0  0  0  0  0  0  0  0  0  0  0
  -29.5410   -5.4530  -28.4340 O   0  0  0  0  0  0  0  0  0  0  0  0
  -28.8130   -3.3190  -28.9930 C   0  0  0  0  0  0  0  0  0  0  0  0
  -29.0370   -8.9930  -30.5360 C   0  0  0  0  0  0  0  0  0  0  0  0
  -28.8070   -9.4290  -31.7320 O   0  0  0  0  0  0  0  0  0  0  0  0
  -29.6280  -10.1400  -29.6080 C   0  0  0  0  0  0  0  0  0  0  0  0
  -29.4250   -9.9690  -28.2430 C   0  0  0  0  0  0  0  0  0  0  0  0
  -29.8860  -10.9160  -27.3350 C   0  0  0  0  0  0  0  0  0  0  0  0
  -30.5410  -12.0080  -27.8380 C   0  0  0  0  0  0  0  0  0  0  0  0
  -30.7400  -12.1750  -29.1830 C   0  0  0  0  0  0  0  0  0  0  0  0
  -30.2870  -11.2490  -30.0650 C   0  0  0  0  0  0  0  0  0  0  0  0
  -29.6730  -10.7450  -25.8510 C   0  0  0  0  0  0  0  0  0  0  0  0
  1  2  2  0
  1  6  1  0
  1  3  1  0
  2  4  1  0
  3 10  1  0
  4  5  2  0
  5  6  1  0
  6  7  1  0
  7  9  1  0
  7  8  2  0
 10 11  2  0
 10 12  1  0
 12 17  1  0
 12 13  2  0
 13 14  1  0
 14 15  2  0
 14 18  1  0
 15 16  1  0
 16 17  2  0
M  END
>  <name>  (637) 
Car Nac Nd0 Car Nac Nac Cs2 .=O Cs3 Cs2 .=O Car Car Car Car Car Car Cs3

>  <indices>  (637) 
[0, 1, 2]

>  <tasks>  (637) 
probe_placing close_aromatic_ring close_aromatic_ring close_aromatic_ring ring_built build_to_Nac build_DB_to_Cs2 build_SB_to_Cs2 build_to_Nd0 build_DB_to_Cs2 build_SB_to_Cs2 close_aromatic_ring close_aromatic_ring close_aromatic_ring close_aromatic_ring close_aromatic_ring

>  <prot_clashes>  (637) 
4

>  <NBS phar>  (637) 
0.2

>  <NBS_non-phar>  (637) 
0.39685500992669

>  <NBS>  (637) 
0.59685500992669

>  <source_stage>  (637) 
scored

>  <source_iter>  (637) 
15

>  <source_parent_mol>  (637) 
0

>  <source_scenario>  (637) 
1 2 3 1 7 1 0 7 1 1 4 5 0 1 0

>  <source_rank_in_scored_call>  (637) 
32

>  <source_current_task>  (637) 
no_task

>  <scenario>  (637) 
1 2 3 1 7 1 0 7 1 1 4 5 0 1

>  <protected_ring_attachments>  (637) 
3,1,0,2|1,0,2;4,5,0,2|5,0,2

>  <current_task>  (637) 
no_task

>  <rotatable_bond_torsions>  (637) 
1,0,2,9;0,2,9,11;0,5,6,8;2,9,11,12

$$$$

     RDKit          3D

 18 19  0  0  0  0  0  0  0  0999 V2000
  -28.3240   -6.5500  -30.8410 C   0  0  0  0  0  0  0  0  0  0  0  0
  -27.8010   -6.6360  -32.0970 N   0  0  0  0  0  0  0  0  0  0  0  0
  -28.7490   -7.7870  -30.1080 N   0  0  0  0  0  0  0  0  0  0  0  0
  -27.4730   -5.4000  -32.5090 C   0  0  0  0  0  0  0  0  0  0  0  0
  -27.8050   -4.5530  -31.4940 N   0  0  0  0  0  0  0  0  0  0  0  0
  -28.3130   -5.2460  -30.4950 N   0  0  0  0  0  0  0  0  0  0  0  0
  -28.7310   -4.7080  -29.2950 C   0  0  0  0  0  0  0  0  0  0  0  0
  -29.2540   -5.3370  -28.3880 O   0  0  0  0  0  0  0  0  0  0  0  0
  -28.4260   -3.2370  -28.9340 C   0  0  0  0  0  0  0  0  0  0  0  0
  -28.9870   -8.8660  -30.5520 C   0  0  0  0  0  0  0  0  0  0  0  0
  -28.8080   -9.2950  -31.7590 O   0  0  0  0  0  0  0  0  0  0  0  0
  -29.6170   -9.9950  -29.6270 C   0  0  0  0  0  0  0  0  0  0  0  0
  -29.3750   -9.8560  -28.2650 C   0  0  0  0  0  0  0  0  0  0  0  0
  -29.8650  -10.7910  -27.3600 C   0  0  0  0  0  0  0  0  0  0  0  0
  -30.5880  -11.8390  -27.8630 C   0  0  0  0  0  0  0  0  0  0  0  0
  -30.8260  -11.9740  -29.2060 C   0  0  0  0  0  0  0  0  0  0  0  0
  -30.3450  -11.0600  -30.0840 C   0  0  0  0  0  0  0  0  0  0  0  0
  -29.1990   -2.3200  -29.8770 C   0  0  0  0  0  0  0  0  0  0  0  0
  1  2  2  0
  1  6  1  0
  1  3  1  0
  2  4  1  0
  3 10  1  0
  4  5  2  0
  5  6  1  0
  6  7  1  0
  7  9  1  0
  7  8  2  0
 10 11  2  0
 10 12  1  0
 12 17  1  0
 12 13  2  0
 13 14  1  0
 14 15  2  0
 15 16  1  0
 16 17  2  0
  9 18  1  0
M  END
>  <name>  (638) 
Car Nac Nd0 Car Nac Nac Cs2 .=O Cs3 Cs2 .=O Car Car Car Car Car Car Cs3

>  <indices>  (638) 
[0, 1, 2]

>  <tasks>  (638) 
probe_placing close_aromatic_ring close_aromatic_ring close_aromatic_ring ring_built build_to_Nac build_DB_to_Cs2 build_SB_to_Cs2 build_to_Nd0 build_DB_to_Cs2 build_SB_to_Cs2 close_aromatic_ring close_aromatic_ring close_aromatic_ring close_aromatic_ring close_aromatic_ring

>  <prot_clashes>  (638) 
3

>  <NBS phar>  (638) 
0.24000000000000005

>  <NBS_non-phar>  (638) 
0.35345066918267143

>  <NBS>  (638) 
0.5934506691826715

>  <source_stage>  (638) 
scored

>  <source_iter>  (638) 
15

>  <source_parent_mol>  (638) 
0

>  <source_scenario>  (638) 
1 2 3 1 7 1 0 7 1 1 4 5 0 1 0

>  <source_rank_in_scored_call>  (638) 
38

>  <source_current_task>  (638) 
no_task

>  <scenario>  (638) 
1 2 3 1 7 1 0 7 1 1 4 5 0 1

>  <protected_ring_attachments>  (638) 
3,1,0,2|1,0,2;4,5,0,2|5,0,2

>  <current_task>  (638) 
no_task

>  <rotatable_bond_torsions>  (638) 
1,0,2,9;0,2,9,11;0,5,6,8;2,9,11,12

$$$$

     RDKit          3D

 18 19  0  0  0  0  0  0  0  0999 V2000
  -28.4870   -6.6460  -30.8430 C   0  0  0  0  0  0  0  0  0  0  0  0
  -27.9320   -6.7250  -32.0860 N   0  0  0  0  0  0  0  0  0  0  0  0
  -28.8600   -7.8930  -30.0980 N   0  0  0  0  0  0  0  0  0  0  0  0
  -27.6630   -5.4790  -32.5130 C   0  0  0  0  0  0  0  0  0  0  0  0
  -28.0630   -4.6350  -31.5210 N   0  0  0  0  0  0  0  0  0  0  0  0
  -28.5550   -5.3380  -30.5210 N   0  0  0  0  0  0  0  0  0  0  0  0
  -29.0290   -4.8040  -29.3390 C   0  0  0  0  0  0  0  0  0  0  0  0
  -29.5370   -5.4470  -28.4330 O   0  0  0  0  0  0  0  0  0  0  0  0
  -28.8130   -3.3130  -28.9980 C   0  0  0  0  0  0  0  0  0  0  0  0
  -29.0290   -8.9910  -30.5290 C   0  0  0  0  0  0  0  0  0  0  0  0
  -28.8000   -9.4280  -31.7240 O   0  0  0  0  0  0  0  0  0  0  0  0
  -29.6180  -10.1370  -29.5980 C   0  0  0  0  0  0  0  0  0  0  0  0
  -29.4140   -9.9630  -28.2330 C   0  0  0  0  0  0  0  0  0  0  0  0
  -29.8720  -10.9080  -27.3230 C   0  0  0  0  0  0  0  0  0  0  0  0
  -30.5260  -12.0030  -27.8220 C   0  0  0  0  0  0  0  0  0  0  0  0
  -30.7260  -12.1730  -29.1670 C   0  0  0  0  0  0  0  0  0  0  0  0
  -30.2760  -11.2470  -30.0510 C   0  0  0  0  0  0  0  0  0  0  0  0
  -27.5380   -3.0960  -28.1960 C   0  0  0  0  0  0  0  0  0  0  0  0
  1  2  2  0
  1  6  1  0
  1  3  1  0
  2  4  1  0
  3 10  1  0
  4  5  2  0
  5  6  1  0
  6  7  1  0
  7  9  1  0
  7  8  2  0
 10 11  2  0
 10 12  1  0
 12 17  1  0
 12 13  2  0
 13 14  1  0
 14 15  2  0
 15 16  1  0
 16 17  2  0
  9 18  1  0
M  END
>  <name>  (639) 
Car Nac Nd0 Car Nac Nac Cs2 .=O Cs3 Cs2 .=O Car Car Car Car Car Car Cs3

>  <indices>  (639) 
[0, 1, 2]

>  <tasks>  (639) 
probe_placing close_aromatic_ring close_aromatic_ring close_aromatic_ring ring_built build_to_Nac build_DB_to_Cs2 build_SB_to_Cs2 build_to_Nd0 build_DB_to_Cs2 build_SB_to_Cs2 close_aromatic_ring close_aromatic_ring close_aromatic_ring close_aromatic_ring close_aromatic_ring

>  <prot_clashes>  (639) 
5

>  <NBS phar>  (639) 
0.2

>  <NBS_non-phar>  (639) 
0.3896670871310764

>  <NBS>  (639) 
0.5896670871310764

>  <source_stage>  (639) 
scored

>  <source_iter>  (639) 
15

>  <source_parent_mol>  (639) 
0

>  <source_scenario>  (639) 
1 2 3 1 7 1 0 7 1 1 4 5 0 1 0

>  <source_rank_in_scored_call>  (639) 
40

>  <source_current_task>  (639) 
no_task

>  <scenario>  (639) 
1 2 3 1 7 1 0 7 1 1 4 5 0 1

>  <protected_ring_attachments>  (639) 
3,1,0,2|1,0,2;4,5,0,2|5,0,2

>  <current_task>  (639) 
no_task

>  <rotatable_bond_torsions>  (639) 
1,0,2,9;0,2,9,11;0,5,6,8;2,9,11,12

$$$$

     RDKit          3D

 18 19  0  0  0  0  0  0  0  0999 V2000
  -28.4880   -6.6500  -30.8470 C   0  0  0  0  0  0  0  0  0  0  0  0
  -27.9400   -6.7220  -32.0930 N   0  0  0  0  0  0  0  0  0  0  0  0
  -28.8600   -7.9010  -30.1070 N   0  0  0  0  0  0  0  0  0  0  0  0
  -27.6700   -5.4740  -32.5130 C   0  0  0  0  0  0  0  0  0  0  0  0
  -28.0630   -4.6360  -31.5130 N   0  0  0  0  0  0  0  0  0  0  0  0
  -28.5510   -5.3440  -30.5150 N   0  0  0  0  0  0  0  0  0  0  0  0
  -29.0170   -4.8170  -29.3280 C   0  0  0  0  0  0  0  0  0  0  0  0
  -29.5220   -5.4640  -28.4230 O   0  0  0  0  0  0  0  0  0  0  0  0
  -28.7960   -3.3280  -28.9770 C   0  0  0  0  0  0  0  0  0  0  0  0
  -29.0340   -8.9950  -30.5440 C   0  0  0  0  0  0  0  0  0  0  0  0
  -28.8120   -9.4260  -31.7430 O   0  0  0  0  0  0  0  0  0  0  0  0
  -29.6200  -10.1460  -29.6180 C   0  0  0  0  0  0  0  0  0  0  0  0
  -29.4080   -9.9820  -28.2530 C   0  0  0  0  0  0  0  0  0  0  0  0
  -29.8640  -10.9320  -27.3460 C   0  0  0  0  0  0  0  0  0  0  0  0
  -30.5230  -12.0220  -27.8500 C   0  0  0  0  0  0  0  0  0  0  0  0
  -30.7300  -12.1820  -29.1940 C   0  0  0  0  0  0  0  0  0  0  0  0
  -30.2830  -11.2520  -30.0750 C   0  0  0  0  0  0  0  0  0  0  0  0
  -31.0340  -13.0750  -26.8970 C   0  0  0  0  0  0  0  0  0  0  0  0
  1  2  2  0
  1  6  1  0
  1  3  1  0
  2  4  1  0
  3 10  1  0
  4  5  2  0
  5  6  1  0
  6  7  1  0
  7  9  1  0
  7  8  2  0
 10 11  2  0
 10 12  1  0
 12 17  1  0
 12 13  2  0
 13 14  1  0
 14 15  2  0
 15 16  1  0
 15 18  1  0
 16 17  2  0
M  END
>  <name>  (640) 
Car Nac Nd0 Car Nac Nac Cs2 .=O Cs3 Cs2 .=O Car Car Car Car Car Car Cs3

>  <indices>  (640) 
[0, 1, 2]

>  <tasks>  (640) 
probe_placing close_aromatic_ring close_aromatic_ring close_aromatic_ring ring_built build_to_Nac build_DB_to_Cs2 build_SB_to_Cs2 build_to_Nd0 build_DB_to_Cs2 build_SB_to_Cs2 close_aromatic_ring close_aromatic_ring close_aromatic_ring close_aromatic_ring close_aromatic_ring

>  <prot_clashes>  (640) 
4

>  <NBS phar>  (640) 
0.2

>  <NBS_non-phar>  (640) 
0.38665299945407444

>  <NBS>  (640) 
0.5866529994540745

>  <source_stage>  (640) 
scored

>  <source_iter>  (640) 
15

>  <source_parent_mol>  (640) 
0

>  <source_scenario>  (640) 
1 2 3 1 7 1 0 7 1 1 4 5 0 1 0

>  <source_rank_in_scored_call>  (640) 
42

>  <source_current_task>  (640) 
no_task

>  <scenario>  (640) 
1 2 3 1 7 1 0 7 1 1 4 5 0 1

>  <protected_ring_attachments>  (640) 
3,1,0,2|1,0,2;4,5,0,2|5,0,2

>  <current_task>  (640) 
no_task

>  <rotatable_bond_torsions>  (640) 
1,0,2,9;0,2,9,11;0,5,6,8;2,9,11,12

$$$$

     RDKit          3D

 18 19  0  0  0  0  0  0  0  0999 V2000
  -28.4730   -6.6300  -30.8160 C   0  0  0  0  0  0  0  0  0  0  0  0
  -27.9330   -6.7230  -32.0650 N   0  0  0  0  0  0  0  0  0  0  0  0
  -28.8300   -7.8670  -30.0490 N   0  0  0  0  0  0  0  0  0  0  0  0
  -27.6760   -5.4820  -32.5130 C   0  0  0  0  0  0  0  0  0  0  0  0
  -28.0690   -4.6260  -31.5280 N   0  0  0  0  0  0  0  0  0  0  0  0
  -28.5450   -5.3180  -30.5120 N   0  0  0  0  0  0  0  0  0  0  0  0
  -29.0070   -4.7690  -29.3320 C   0  0  0  0  0  0  0  0  0  0  0  0
  -29.5010   -5.4010  -28.4110 O   0  0  0  0  0  0  0  0  0  0  0  0
  -28.7960   -3.2720  -29.0150 C   0  0  0  0  0  0  0  0  0  0  0  0
  -28.9980   -8.9720  -30.4620 C   0  0  0  0  0  0  0  0  0  0  0  0
  -28.7810   -9.4260  -31.6530 O   0  0  0  0  0  0  0  0  0  0  0  0
  -29.5690  -10.1080  -29.5070 C   0  0  0  0  0  0  0  0  0  0  0  0
  -29.3500   -9.9140  -28.1470 C   0  0  0  0  0  0  0  0  0  0  0  0
  -29.7920  -10.8480  -27.2180 C   0  0  0  0  0  0  0  0  0  0  0  0
  -30.4450  -11.9530  -27.6950 C   0  0  0  0  0  0  0  0  0  0  0  0
  -30.6610  -12.1440  -29.0340 C   0  0  0  0  0  0  0  0  0  0  0  0
  -30.2260  -11.2290  -29.9370 C   0  0  0  0  0  0  0  0  0  0  0  0
  -31.3860  -13.3790  -29.5090 C   0  0  0  0  0  0  0  0  0  0  0  0
  1  2  2  0
  1  6  1  0
  1  3  1  0
  2  4  1  0
  3 10  1  0
  4  5  2  0
  5  6  1  0
  6  7  1  0
  7  9  1  0
  7  8  2  0
 10 11  2  0
 10 12  1  0
 12 17  1  0
 12 13  2  0
 13 14  1  0
 14 15  2  0
 15 16  1  0
 16 17  2  0
 16 18  1  0
M  END
>  <name>  (641) 
Car Nac Nd0 Car Nac Nac Cs2 .=O Cs3 Cs2 .=O Car Car Car Car Car Car Cs3

>  <indices>  (641) 
[0, 1, 2]

>  <tasks>  (641) 
probe_placing close_aromatic_ring close_aromatic_ring close_aromatic_ring ring_built build_to_Nac build_DB_to_Cs2 build_SB_to_Cs2 build_to_Nd0 build_DB_to_Cs2 build_SB_to_Cs2 close_aromatic_ring close_aromatic_ring close_aromatic_ring close_aromatic_ring close_aromatic_ring

>  <prot_clashes>  (641) 
5

>  <NBS phar>  (641) 
0.2

>  <NBS_non-phar>  (641) 
0.38457560539245605

>  <NBS>  (641) 
0.584575605392456

>  <source_stage>  (641) 
scored

>  <source_iter>  (641) 
15

>  <source_parent_mol>  (641) 
0

>  <source_scenario>  (641) 
1 2 3 1 7 1 0 7 1 1 4 5 0 1 0

>  <source_rank_in_scored_call>  (641) 
45

>  <source_current_task>  (641) 
no_task

>  <scenario>  (641) 
1 2 3 1 7 1 0 7 1 1 4 5 0 1

>  <protected_ring_attachments>  (641) 
3,1,0,2|1,0,2;4,5,0,2|5,0,2

>  <current_task>  (641) 
no_task

>  <rotatable_bond_torsions>  (641) 
1,0,2,9;0,2,9,11;0,5,6,8;2,9,11,12

$$$$

     RDKit          3D

 18 19  0  0  0  0  0  0  0  0999 V2000
  -28.4380   -6.5240  -30.8020 C   0  0  0  0  0  0  0  0  0  0  0  0
  -27.8500   -6.6650  -32.0250 N   0  0  0  0  0  0  0  0  0  0  0  0
  -28.8170   -7.7320  -29.9990 N   0  0  0  0  0  0  0  0  0  0  0  0
  -27.5830   -5.4410  -32.5130 C   0  0  0  0  0  0  0  0  0  0  0  0
  -28.0180   -4.5490  -31.5800 N   0  0  0  0  0  0  0  0  0  0  0  0
  -28.5280   -5.2020  -30.5550 N   0  0  0  0  0  0  0  0  0  0  0  0
  -29.0380   -4.6090  -29.4170 C   0  0  0  0  0  0  0  0  0  0  0  0
  -29.5630   -5.2060  -28.4900 O   0  0  0  0  0  0  0  0  0  0  0  0
  -28.8470   -3.0980  -29.1540 C   0  0  0  0  0  0  0  0  0  0  0  0
  -28.9630   -8.8540  -30.3720 C   0  0  0  0  0  0  0  0  0  0  0  0
  -28.6980   -9.3550  -31.5340 O   0  0  0  0  0  0  0  0  0  0  0  0
  -29.5630   -9.9540  -29.3940 C   0  0  0  0  0  0  0  0  0  0  0  0
  -29.3960   -9.7030  -28.0360 C   0  0  0  0  0  0  0  0  0  0  0  0
  -29.8680  -10.6020  -27.0860 C   0  0  0  0  0  0  0  0  0  0  0  0
  -30.4970  -11.7300  -27.5410 C   0  0  0  0  0  0  0  0  0  0  0  0
  -30.6600  -11.9770  -28.8790 C   0  0  0  0  0  0  0  0  0  0  0  0
  -30.1960  -11.0960  -29.8010 C   0  0  0  0  0  0  0  0  0  0  0  0
  -28.6150   -2.8490  -27.7310 C   0  0  0  0  0  0  0  0  0  0  0  0
  1  2  2  0
  1  6  1  0
  1  3  1  0
  2  4  1  0
  3 10  1  0
  4  5  2  0
  5  6  1  0
  6  7  1  0
  7  9  1  0
  7  8  2  0
 10 11  2  0
 10 12  1  0
 12 17  1  0
 12 13  2  0
 13 14  1  0
 14 15  2  0
 15 16  1  0
 16 17  2  0
  9 18  1  0
M  END
>  <name>  (642) 
Car Nac Nd0 Car Nac Nac Cs2 .=O Cs3 Cs2 .=O Car Car Car Car Car Car Cs3

>  <indices>  (642) 
[0, 1, 2]

>  <tasks>  (642) 
probe_placing close_aromatic_ring close_aromatic_ring close_aromatic_ring ring_built build_to_Nac build_DB_to_Cs2 build_SB_to_Cs2 build_to_Nd0 build_DB_to_Cs2 build_SB_to_Cs2 close_aromatic_ring close_aromatic_ring close_aromatic_ring close_aromatic_ring close_aromatic_ring

>  <prot_clashes>  (642) 
3

>  <NBS phar>  (642) 
0.2

>  <NBS_non-phar>  (642) 
0.3722250461578369

>  <NBS>  (642) 
0.5722250461578369

>  <source_stage>  (642) 
scored

>  <source_iter>  (642) 
15

>  <source_parent_mol>  (642) 
0

>  <source_scenario>  (642) 
1 2 3 1 7 1 0 7 1 1 4 5 0 1 0

>  <source_rank_in_scored_call>  (642) 
59

>  <source_current_task>  (642) 
no_task

>  <scenario>  (642) 
1 2 3 1 7 1 0 7 1 1 4 5 0 1

>  <protected_ring_attachments>  (642) 
3,1,0,2|1,0,2;4,5,0,2|5,0,2

>  <current_task>  (642) 
no_task

>  <rotatable_bond_torsions>  (642) 
1,0,2,9;0,2,9,11;0,5,6,8;2,9,11,12

$$$$

     RDKit          3D

 18 19  0  0  0  0  0  0  0  0999 V2000
  -28.4600   -6.5170  -30.7960 C   0  0  0  0  0  0  0  0  0  0  0  0
  -27.9130   -6.6370  -32.0390 N   0  0  0  0  0  0  0  0  0  0  0  0
  -28.8160   -7.7380  -30.0020 N   0  0  0  0  0  0  0  0  0  0  0  0
  -27.6580   -5.4050  -32.5140 C   0  0  0  0  0  0  0  0  0  0  0  0
  -28.0580   -4.5290  -31.5500 N   0  0  0  0  0  0  0  0  0  0  0  0
  -28.5370   -5.1990  -30.5210 N   0  0  0  0  0  0  0  0  0  0  0  0
  -29.0060   -4.6260  -29.3570 C   0  0  0  0  0  0  0  0  0  0  0  0
  -29.5030   -5.2380  -28.4240 O   0  0  0  0  0  0  0  0  0  0  0  0
  -28.8010   -3.1210  -29.0720 C   0  0  0  0  0  0  0  0  0  0  0  0
  -28.9790   -8.8530  -30.3910 C   0  0  0  0  0  0  0  0  0  0  0  0
  -28.7540   -9.3330  -31.5700 O   0  0  0  0  0  0  0  0  0  0  0  0
  -29.5500   -9.9690  -29.4140 C   0  0  0  0  0  0  0  0  0  0  0  0
  -29.3380   -9.7430  -28.0580 C   0  0  0  0  0  0  0  0  0  0  0  0
  -29.7820  -10.6580  -27.1100 C   0  0  0  0  0  0  0  0  0  0  0  0
  -30.4290  -11.7760  -27.5640 C   0  0  0  0  0  0  0  0  0  0  0  0
  -30.6380  -11.9970  -28.9000 C   0  0  0  0  0  0  0  0  0  0  0  0
  -30.2020  -11.1010  -29.8210 C   0  0  0  0  0  0  0  0  0  0  0  0
  -27.8520   -2.8590  -27.9350 C   0  0  0  0  0  0  0  0  0  0  0  0
  1  2  2  0
  1  6  1  0
  1  3  1  0
  2  4  1  0
  3 10  1  0
  4  5  2  0
  5  6  1  0
  6  7  1  0
  7  9  1  0
  7  8  2  0
 10 11  2  0
 10 12  1  0
 12 17  1  0
 12 13  2  0
 13 14  1  0
 14 15  2  0
 15 16  1  0
 16 17  2  0
  9 18  1  0
M  END
>  <name>  (643) 
Car Nac Nd0 Car Nac Nac Cs2 .=O Cs3 Cs2 .=O Car Car Car Car Car Car Cs3

>  <indices>  (643) 
[0, 1, 2]

>  <tasks>  (643) 
probe_placing close_aromatic_ring close_aromatic_ring close_aromatic_ring ring_built build_to_Nac build_DB_to_Cs2 build_SB_to_Cs2 build_to_Nd0 build_DB_to_Cs2 build_SB_to_Cs2 close_aromatic_ring close_aromatic_ring close_aromatic_ring close_aromatic_ring close_aromatic_ring

>  <prot_clashes>  (643) 
3

>  <NBS phar>  (643) 
0.2

>  <NBS_non-phar>  (643) 
0.37078648143344456

>  <NBS>  (643) 
0.5707864814334446

>  <source_stage>  (643) 
scored

>  <source_iter>  (643) 
15

>  <source_parent_mol>  (643) 
0

>  <source_scenario>  (643) 
1 2 3 1 7 1 0 7 1 1 4 5 0 1 0

>  <source_rank_in_scored_call>  (643) 
64

>  <source_current_task>  (643) 
no_task

>  <scenario>  (643) 
1 2 3 1 7 1 0 7 1 1 4 5 0 1

>  <protected_ring_attachments>  (643) 
3,1,0,2|1,0,2;4,5,0,2|5,0,2

>  <current_task>  (643) 
no_task

>  <rotatable_bond_torsions>  (643) 
1,0,2,9;0,2,9,11;0,5,6,8;2,9,11,12

$$$$

     RDKit          3D

 18 19  0  0  0  0  0  0  0  0999 V2000
  -28.3830   -6.5690  -30.8240 C   0  0  0  0  0  0  0  0  0  0  0  0
  -27.8590   -6.6700  -32.0790 N   0  0  0  0  0  0  0  0  0  0  0  0
  -28.8000   -7.7980  -30.0740 N   0  0  0  0  0  0  0  0  0  0  0  0
  -27.5400   -5.4370  -32.5090 C   0  0  0  0  0  0  0  0  0  0  0  0
  -27.8780   -4.5780  -31.5060 N   0  0  0  0  0  0  0  0  0  0  0  0
  -28.3810   -5.2600  -30.4980 N   0  0  0  0  0  0  0  0  0  0  0  0
  -28.8030   -4.7080  -29.3050 C   0  0  0  0  0  0  0  0  0  0  0  0
  -29.3230   -5.3280  -28.3890 O   0  0  0  0  0  0  0  0  0  0  0  0
  -28.5090   -3.2290  -28.9650 C   0  0  0  0  0  0  0  0  0  0  0  0
  -29.0300   -8.8860  -30.5030 C   0  0  0  0  0  0  0  0  0  0  0  0
  -28.8480   -9.3300  -31.7030 O   0  0  0  0  0  0  0  0  0  0  0  0
  -29.6530  -10.0050  -29.5620 C   0  0  0  0  0  0  0  0  0  0  0  0
  -29.4120   -9.8450  -28.2010 C   0  0  0  0  0  0  0  0  0  0  0  0
  -29.8960  -10.7700  -27.2830 C   0  0  0  0  0  0  0  0  0  0  0  0
  -30.6120  -11.8310  -27.7710 C   0  0  0  0  0  0  0  0  0  0  0  0
  -30.8480  -11.9870  -29.1120 C   0  0  0  0  0  0  0  0  0  0  0  0
  -30.3730  -11.0810  -30.0040 C   0  0  0  0  0  0  0  0  0  0  0  0
  -29.3010   -2.2420  -29.8780 C   0  0  0  0  0  0  0  0  0  0  0  0
  1  2  2  0
  1  6  1  0
  1  3  1  0
  2  4  1  0
  3 10  1  0
  4  5  2  0
  5  6  1  0
  6  7  1  0
  7  9  1  0
  7  8  2  0
 10 11  2  0
 10 12  1  0
 12 17  1  0
 12 13  2  0
 13 14  1  0
 14 15  2  0
 15 16  1  0
 16 17  2  0
  9 18  1  0
M  END
>  <name>  (644) 
Car Nac Nd0 Car Nac Nac Cs2 .=O Cs3 Cs2 .=O Car Car Car Car Car Car Cs3

>  <indices>  (644) 
[0, 1, 2]

>  <tasks>  (644) 
probe_placing close_aromatic_ring close_aromatic_ring close_aromatic_ring ring_built build_to_Nac build_DB_to_Cs2 build_SB_to_Cs2 build_to_Nd0 build_DB_to_Cs2 build_SB_to_Cs2 close_aromatic_ring close_aromatic_ring close_aromatic_ring close_aromatic_ring close_aromatic_ring

>  <prot_clashes>  (644) 
4

>  <NBS phar>  (644) 
0.22000000000000003

>  <NBS_non-phar>  (644) 
0.3424832026163737

>  <NBS>  (644) 
0.5624832026163737

>  <source_stage>  (644) 
scored

>  <source_iter>  (644) 
15

>  <source_parent_mol>  (644) 
0

>  <source_scenario>  (644) 
1 2 3 1 7 1 0 7 1 1 4 5 0 1 0

>  <source_rank_in_scored_call>  (644) 
70

>  <source_current_task>  (644) 
no_task

>  <scenario>  (644) 
1 2 3 1 7 1 0 7 1 1 4 5 0 1

>  <protected_ring_attachments>  (644) 
3,1,0,2|1,0,2;4,5,0,2|5,0,2

>  <current_task>  (644) 
no_task

>  <rotatable_bond_torsions>  (644) 
1,0,2,9;0,2,9,11;0,5,6,8;2,9,11,12

$$$$

     RDKit          3D

 18 19  0  0  0  0  0  0  0  0999 V2000
  -28.3300   -6.4770  -30.6760 C   0  0  0  0  0  0  0  0  0  0  0  0
  -27.8090   -6.6690  -31.9210 N   0  0  0  0  0  0  0  0  0  0  0  0
  -28.5710   -7.6440  -29.7650 N   0  0  0  0  0  0  0  0  0  0  0  0
  -27.6620   -5.4700  -32.5120 C   0  0  0  0  0  0  0  0  0  0  0  0
  -28.1030   -4.5420  -31.6170 N   0  0  0  0  0  0  0  0  0  0  0  0
  -28.5010   -5.1490  -30.5170 N   0  0  0  0  0  0  0  0  0  0  0  0
  -28.9820   -4.5080  -29.3930 C   0  0  0  0  0  0  0  0  0  0  0  0
  -29.4050   -5.0680  -28.3930 O   0  0  0  0  0  0  0  0  0  0  0  0
  -28.8860   -2.9720  -29.2510 C   0  0  0  0  0  0  0  0  0  0  0  0
  -28.6570   -8.7980  -30.0470 C   0  0  0  0  0  0  0  0  0  0  0  0
  -28.4280   -9.3650  -31.1870 O   0  0  0  0  0  0  0  0  0  0  0  0
  -29.1150   -9.8600  -28.9560 C   0  0  0  0  0  0  0  0  0  0  0  0
  -28.8850   -9.4950  -27.6340 C   0  0  0  0  0  0  0  0  0  0  0  0
  -29.2320  -10.3500  -26.5940 C   0  0  0  0  0  0  0  0  0  0  0  0
  -29.8030  -11.5500  -26.9250 C   0  0  0  0  0  0  0  0  0  0  0  0
  -30.0300  -11.9070  -28.2280 C   0  0  0  0  0  0  0  0  0  0  0  0
  -29.6880  -11.0690  -29.2390 C   0  0  0  0  0  0  0  0  0  0  0  0
  -29.9410  -11.4700  -30.6710 C   0  0  0  0  0  0  0  0  0  0  0  0
  1  2  2  0
  1  6  1  0
  1  3  1  0
  2  4  1  0
  3 10  1  0
  4  5  2  0
  5  6  1  0
  6  7  1  0
  7  9  1  0
  7  8  2  0
 10 11  2  0
 10 12  1  0
 12 17  1  0
 12 13  2  0
 13 14  1  0
 14 15  2  0
 15 16  1  0
 16 17  2  0
 17 18  1  0
M  END
>  <name>  (645) 
Car Nac Nd0 Car Nac Nac Cs2 .=O Cs3 Cs2 .=O Car Car Car Car Car Car Cs3

>  <indices>  (645) 
[0, 1, 2]

>  <tasks>  (645) 
probe_placing close_aromatic_ring close_aromatic_ring close_aromatic_ring ring_built build_to_Nac build_DB_to_Cs2 build_SB_to_Cs2 build_to_Nd0 build_DB_to_Cs2 build_SB_to_Cs2 close_aromatic_ring close_aromatic_ring close_aromatic_ring close_aromatic_ring close_aromatic_ring

>  <prot_clashes>  (645) 
5

>  <NBS phar>  (645) 
0.1

>  <NBS_non-phar>  (645) 
0.43055155542161727

>  <NBS>  (645) 
0.5305515554216172

>  <source_stage>  (645) 
scored

>  <source_iter>  (645) 
15

>  <source_parent_mol>  (645) 
0

>  <source_scenario>  (645) 
1 2 3 1 7 1 0 7 1 1 4 5 0 1 0

>  <source_rank_in_scored_call>  (645) 
101

>  <source_current_task>  (645) 
no_task

>  <scenario>  (645) 
1 2 3 1 7 1 0 7 1 1 4 5 0 1

>  <protected_ring_attachments>  (645) 
3,1,0,2|1,0,2;4,5,0,2|5,0,2

>  <current_task>  (645) 
no_task

>  <rotatable_bond_torsions>  (645) 
1,0,2,9;0,2,9,11;0,5,6,8;2,9,11,12

$$$$

     RDKit          3D

 18 19  0  0  0  0  0  0  0  0999 V2000
  -28.4040   -6.6570  -30.8580 C   0  0  0  0  0  0  0  0  0  0  0  0
  -28.0280   -6.7600  -32.1650 N   0  0  0  0  0  0  0  0  0  0  0  0
  -28.8040   -7.8780  -30.0850 N   0  0  0  0  0  0  0  0  0  0  0  0
  -27.6880   -5.5380  -32.6090 C   0  0  0  0  0  0  0  0  0  0  0  0
  -27.8640   -4.6830  -31.5630 N   0  0  0  0  0  0  0  0  0  0  0  0
  -28.2910   -5.3580  -30.5140 N   0  0  0  0  0  0  0  0  0  0  0  0
  -28.5460   -4.8090  -29.2740 C   0  0  0  0  0  0  0  0  0  0  0  0
  -28.9950   -5.4190  -28.3150 O   0  0  0  0  0  0  0  0  0  0  0  0
  -28.1320   -3.3570  -28.9460 C   0  0  0  0  0  0  0  0  0  0  0  0
  -29.1430   -8.9410  -30.5020 C   0  0  0  0  0  0  0  0  0  0  0  0
  -29.1200   -9.3690  -31.7220 O   0  0  0  0  0  0  0  0  0  0  0  0
  -29.7210  -10.0450  -29.5140 C   0  0  0  0  0  0  0  0  0  0  0  0
  -29.3220   -9.9280  -28.1870 C   0  0  0  0  0  0  0  0  0  0  0  0
  -29.7530  -10.8440  -27.2350 C   0  0  0  0  0  0  0  0  0  0  0  0
  -30.5780  -11.8530  -27.6560 C   0  0  0  0  0  0  0  0  0  0  0  0
  -30.9700  -11.9660  -28.9640 C   0  0  0  0  0  0  0  0  0  0  0  0
  -30.5450  -11.0700  -29.8890 C   0  0  0  0  0  0  0  0  0  0  0  0
  -29.1880   -2.6440  -28.1650 C   0  0  0  0  0  0  0  0  0  0  0  0
  1  2  2  0
  1  6  1  0
  1  3  1  0
  2  4  1  0
  3 10  1  0
  4  5  2  0
  5  6  1  0
  6  7  1  0
  7  9  1  0
  7  8  2  0
 10 11  2  0
 10 12  1  0
 12 17  1  0
 12 13  2  0
 13 14  1  0
 14 15  2  0
 15 16  1  0
 16 17  2  0
  9 18  1  0
M  END
>  <name>  (646) 
Car Nac Nd0 Car Nac Nac Cs2 .=O Cs3 Cs2 .=O Car Car Car Car Car Car Cs3

>  <indices>  (646) 
[0, 1, 2]

>  <tasks>  (646) 
probe_placing close_aromatic_ring close_aromatic_ring close_aromatic_ring ring_built build_to_Nac build_DB_to_Cs2 build_SB_to_Cs2 build_to_Nd0 build_DB_to_Cs2 build_SB_to_Cs2 close_aromatic_ring close_aromatic_ring close_aromatic_ring close_aromatic_ring close_aromatic_ring

>  <prot_clashes>  (646) 
5

>  <NBS phar>  (646) 
0.13999999999999999

>  <NBS_non-phar>  (646) 
0.37918837865193683

>  <NBS>  (646) 
0.5191883786519368

>  <source_stage>  (646) 
scored

>  <source_iter>  (646) 
15

>  <source_parent_mol>  (646) 
0

>  <source_scenario>  (646) 
1 2 3 1 7 1 0 7 1 1 4 5 0 1 0

>  <source_rank_in_scored_call>  (646) 
103

>  <source_current_task>  (646) 
no_task

>  <scenario>  (646) 
1 2 3 1 7 1 0 7 1 1 4 5 0 1

>  <protected_ring_attachments>  (646) 
3,1,0,2|1,0,2;4,5,0,2|5,0,2

>  <current_task>  (646) 
no_task

>  <rotatable_bond_torsions>  (646) 
1,0,2,9;0,2,9,11;0,5,6,8;2,9,11,12

$$$$

     RDKit          3D

 18 19  0  0  0  0  0  0  0  0999 V2000
  -28.3810   -6.6560  -30.8530 C   0  0  0  0  0  0  0  0  0  0  0  0
  -28.0220   -6.7330  -32.1660 N   0  0  0  0  0  0  0  0  0  0  0  0
  -28.7710   -7.8920  -30.0990 N   0  0  0  0  0  0  0  0  0  0  0  0
  -27.6890   -5.5020  -32.5910 C   0  0  0  0  0  0  0  0  0  0  0  0
  -27.8520   -4.6680  -31.5250 N   0  0  0  0  0  0  0  0  0  0  0  0
  -28.2650   -5.3640  -30.4850 N   0  0  0  0  0  0  0  0  0  0  0  0
  -28.5060   -4.8400  -29.2310 C   0  0  0  0  0  0  0  0  0  0  0  0
  -28.9420   -5.4690  -28.2790 O   0  0  0  0  0  0  0  0  0  0  0  0
  -28.0890   -3.3940  -28.8800 C   0  0  0  0  0  0  0  0  0  0  0  0
  -29.1140   -8.9480  -30.5330 C   0  0  0  0  0  0  0  0  0  0  0  0
  -29.1050   -9.3520  -31.7610 O   0  0  0  0  0  0  0  0  0  0  0  0
  -29.6780  -10.0710  -29.5600 C   0  0  0  0  0  0  0  0  0  0  0  0
  -29.2630   -9.9800  -28.2360 C   0  0  0  0  0  0  0  0  0  0  0  0
  -29.6820  -10.9150  -27.2960 C   0  0  0  0  0  0  0  0  0  0  0  0
  -30.5110  -11.9160  -27.7270 C   0  0  0  0  0  0  0  0  0  0  0  0
  -30.9190  -12.0050  -29.0320 C   0  0  0  0  0  0  0  0  0  0  0  0
  -30.5060  -11.0890  -29.9450 C   0  0  0  0  0  0  0  0  0  0  0  0
  -29.1890   -2.5820  -28.2460 C   0  0  0  0  0  0  0  0  0  0  0  0
  1  2  2  0
  1  6  1  0
  1  3  1  0
  2  4  1  0
  3 10  1  0
  4  5  2  0
  5  6  1  0
  6  7  1  0
  7  9  1  0
  7  8  2  0
 10 11  2  0
 10 12  1  0
 12 17  1  0
 12 13  2  0
 13 14  1  0
 14 15  2  0
 15 16  1  0
 16 17  2  0
  9 18  1  0
M  END
>  <name>  (647) 
Car Nac Nd0 Car Nac Nac Cs2 .=O Cs3 Cs2 .=O Car Car Car Car Car Car Cs3

>  <indices>  (647) 
[0, 1, 2]

>  <tasks>  (647) 
probe_placing close_aromatic_ring close_aromatic_ring close_aromatic_ring ring_built build_to_Nac build_DB_to_Cs2 build_SB_to_Cs2 build_to_Nd0 build_DB_to_Cs2 build_SB_to_Cs2 close_aromatic_ring close_aromatic_ring close_aromatic_ring close_aromatic_ring close_aromatic_ring

>  <prot_clashes>  (647) 
5

>  <NBS phar>  (647) 
0.13999999999999999

>  <NBS_non-phar>  (647) 
0.3653111987643772

>  <NBS>  (647) 
0.5053111987643771

>  <source_stage>  (647) 
scored

>  <source_iter>  (647) 
15

>  <source_parent_mol>  (647) 
0

>  <source_scenario>  (647) 
1 2 3 1 7 1 0 7 1 1 4 5 0 1 0

>  <source_rank_in_scored_call>  (647) 
105

>  <source_current_task>  (647) 
no_task

>  <scenario>  (647) 
1 2 3 1 7 1 0 7 1 1 4 5 0 1

>  <protected_ring_attachments>  (647) 
3,1,0,2|1,0,2;4,5,0,2|5,0,2

>  <current_task>  (647) 
no_task

>  <rotatable_bond_torsions>  (647) 
1,0,2,9;0,2,9,11;0,5,6,8;2,9,11,12

$$$$

     RDKit          3D

 17 18  0  0  0  0  0  0  0  0999 V2000
  -28.4820   -6.6080  -30.8250 C   0  0  0  0  0  0  0  0  0  0  0  0
  -27.9290   -6.6610  -32.0730 N   0  0  0  0  0  0  0  0  0  0  0  0
  -28.8490   -7.8690  -30.1040 N   0  0  0  0  0  0  0  0  0  0  0  0
  -27.6630   -5.4060  -32.4770 C   0  0  0  0  0  0  0  0  0  0  0  0
  -28.0630   -4.5830  -31.4680 N   0  0  0  0  0  0  0  0  0  0  0  0
  -28.5510   -5.3080  -30.4790 N   0  0  0  0  0  0  0  0  0  0  0  0
  -29.0220   -4.7960  -29.2870 C   0  0  0  0  0  0  0  0  0  0  0  0
  -29.5280   -5.4570  -28.3920 O   0  0  0  0  0  0  0  0  0  0  0  0
  -28.8110   -3.3120  -28.9170 C   0  0  0  0  0  0  0  0  0  0  0  0
  -29.0160   -8.9590  -30.5560 C   0  0  0  0  0  0  0  0  0  0  0  0
  -28.7890   -9.3740  -31.7590 O   0  0  0  0  0  0  0  0  0  0  0  0
  -29.5780  -10.1000  -29.6250 C   0  0  0  0  0  0  0  0  0  0  0  0
  -30.2440  -11.1830  -30.1660 C   0  0  0  0  0  0  0  0  0  0  0  0
  -29.4010  -10.0050  -28.2670 C   0  0  0  0  0  0  0  0  0  0  0  0
  -29.8890  -10.9990  -27.4110 C   0  0  0  0  0  0  0  0  0  0  0  0
  -30.7220  -12.1580  -29.3090 C   0  0  0  0  0  0  0  0  0  0  0  0
  -30.5640  -12.0980  -27.9400 C   0  0  0  0  0  0  0  0  0  0  0  0
  1  2  2  0
  1  6  1  0
  1  3  1  0
  2  4  1  0
  3 10  1  0
  4  5  2  0
  5  6  1  0
  6  7  1  0
  7  9  1  0
  7  8  2  0
 10 11  2  0
 10 12  1  0
 12 13  2  0
 12 14  1  0
 13 16  1  0
 14 15  2  0
 15 17  1  0
 16 17  2  0
M  END
>  <name>  (648) 
Car Nac Nd0 Car Nac Nac Cs2 .=O Cs3 Cs2 .=O Car Car Car Car Car Car

>  <indices>  (648) 
[0, 1, 2]

>  <tasks>  (648) 
probe_placing close_aromatic_ring close_aromatic_ring close_aromatic_ring ring_built build_to_Nac build_DB_to_Cs2 build_SB_to_Cs2 build_to_Nd0 build_DB_to_Cs2 build_SB_to_Cs2 close_aromatic_ring close_aromatic_ring close_aromatic_ring close_aromatic_ring

>  <prot_clashes>  (648) 
2

>  <NBS phar>  (648) 
0.2

>  <NBS_non-phar>  (648) 
0.35429783428416534

>  <NBS>  (648) 
0.5542978342841653

>  <source_stage>  (648) 
scored

>  <source_iter>  (648) 
14

>  <source_parent_mol>  (648) 
1

>  <source_scenario>  (648) 
1 2 3 1 7 1 0 7 1 1 4 7 0 1

>  <source_rank_in_scored_call>  (648) 
1

>  <source_current_task>  (648) 
close_aromatic_ring

>  <scenario>  (648) 
1 2 3 1 7 1 0 7 1 1 4 7 0

>  <protected_ring_attachments>  (648) 
3,1,0,2|1,0,2;4,5,0,2|5,0,2

>  <current_task>  (648) 
no_task

>  <rotatable_bond_torsions>  (648) 
1,0,2,9;0,2,9,11;0,5,6,8;2,9,11,12;9,11,12,15

$$$$

     RDKit          3D

 17 18  0  0  0  0  0  0  0  0999 V2000
  -28.4880   -6.6290  -30.8040 C   0  0  0  0  0  0  0  0  0  0  0  0
  -27.9330   -6.6990  -32.0490 N   0  0  0  0  0  0  0  0  0  0  0  0
  -28.8610   -7.8800  -30.0670 N   0  0  0  0  0  0  0  0  0  0  0  0
  -27.6630   -5.4510  -32.4690 C   0  0  0  0  0  0  0  0  0  0  0  0
  -28.0630   -4.6130  -31.4720 N   0  0  0  0  0  0  0  0  0  0  0  0
  -28.5550   -5.3230  -30.4750 N   0  0  0  0  0  0  0  0  0  0  0  0
  -29.0280   -4.7960  -29.2900 C   0  0  0  0  0  0  0  0  0  0  0  0
  -29.5380   -5.4430  -28.3890 O   0  0  0  0  0  0  0  0  0  0  0  0
  -28.8130   -3.3070  -28.9400 C   0  0  0  0  0  0  0  0  0  0  0  0
  -29.0300   -8.9740  -30.5060 C   0  0  0  0  0  0  0  0  0  0  0  0
  -28.8010   -9.4070  -31.7010 O   0  0  0  0  0  0  0  0  0  0  0  0
  -29.5950  -10.1010  -29.5550 C   0  0  0  0  0  0  0  0  0  0  0  0
  -30.2650  -11.1980  -30.0530 C   0  0  0  0  0  0  0  0  0  0  0  0
  -29.4070   -9.9680  -28.1760 C   0  0  0  0  0  0  0  0  0  0  0  0
  -29.9120  -10.9580  -27.3710 C   0  0  0  0  0  0  0  0  0  0  0  0
  -30.5890  -12.0670  -27.8710 C   0  0  0  0  0  0  0  0  0  0  0  0
  -30.7690  -12.1890  -29.2340 C   0  0  0  0  0  0  0  0  0  0  0  0
  1  2  2  0
  1  6  1  0
  1  3  1  0
  2  4  1  0
  3 10  1  0
  4  5  2  0
  5  6  1  0
  6  7  1  0
  7  9  1  0
  7  8  2  0
 10 11  2  0
 10 12  1  0
 12 13  2  0
 12 14  1  0
 13 17  1  0
 14 15  2  0
 15 16  1  0
 16 17  2  0
M  END
>  <name>  (649) 
Car Nac Nd0 Car Nac Nac Cs2 .=O Cs3 Cs2 .=O Car Car Car Car Car Car

>  <indices>  (649) 
[0, 1, 2]

>  <tasks>  (649) 
probe_placing close_aromatic_ring close_aromatic_ring close_aromatic_ring ring_built build_to_Nac build_DB_to_Cs2 build_SB_to_Cs2 build_to_Nd0 build_DB_to_Cs2 build_SB_to_Cs2 close_aromatic_ring close_aromatic_ring close_aromatic_ring close_aromatic_ring

>  <prot_clashes>  (649) 
2

>  <NBS phar>  (649) 
0.2

>  <NBS_non-phar>  (649) 
0.35460200029260974

>  <NBS>  (649) 
0.5546020002926098

>  <source_stage>  (649) 
scored

>  <source_iter>  (649) 
14

>  <source_parent_mol>  (649) 
3

>  <source_scenario>  (649) 
1 2 3 1 7 1 0 7 1 1 4 7 0 3

>  <source_rank_in_scored_call>  (649) 
0

>  <source_current_task>  (649) 
close_aromatic_ring

>  <scenario>  (649) 
1 2 3 1 7 1 0 7 1 1 4 7 0

>  <protected_ring_attachments>  (649) 
3,1,0,2|1,0,2;4,5,0,2|5,0,2

>  <current_task>  (649) 
no_task

>  <rotatable_bond_torsions>  (649) 
1,0,2,9;0,2,9,11;0,5,6,8;2,9,11,13;11,13,14,15

$$$$

     RDKit          3D

 17 18  0  0  0  0  0  0  0  0999 V2000
  -28.4640   -6.6450  -30.8430 C   0  0  0  0  0  0  0  0  0  0  0  0
  -27.9380   -6.7000  -32.1000 N   0  0  0  0  0  0  0  0  0  0  0  0
  -28.8140   -7.9060  -30.1110 N   0  0  0  0  0  0  0  0  0  0  0  0
  -27.6850   -5.4460  -32.5130 C   0  0  0  0  0  0  0  0  0  0  0  0
  -28.0630   -4.6200  -31.4980 N   0  0  0  0  0  0  0  0  0  0  0  0
  -28.5290   -5.3450  -30.4970 N   0  0  0  0  0  0  0  0  0  0  0  0
  -28.9760   -4.8320  -29.2960 C   0  0  0  0  0  0  0  0  0  0  0  0
  -29.4590   -5.4910  -28.3880 O   0  0  0  0  0  0  0  0  0  0  0  0
  -28.7590   -3.3450  -28.9340 C   0  0  0  0  0  0  0  0  0  0  0  0
  -28.9860   -8.9970  -30.5560 C   0  0  0  0  0  0  0  0  0  0  0  0
  -28.7850   -9.4140  -31.7630 O   0  0  0  0  0  0  0  0  0  0  0  0
  -29.5620  -10.1230  -29.6790 C   0  0  0  0  0  0  0  0  0  0  0  0
  -29.6220  -11.3450  -30.3120 C   0  0  0  0  0  0  0  0  0  0  0  0
  -30.0680  -12.4780  -29.6280 C   0  0  0  0  0  0  0  0  0  0  0  0
  -29.9600  -10.0600  -28.3420 C   0  0  0  0  0  0  0  0  0  0  0  0
  -30.4020  -11.1950  -27.6690 C   0  0  0  0  0  0  0  0  0  0  0  0
  -30.4630  -12.4200  -28.3030 C   0  0  0  0  0  0  0  0  0  0  0  0
  1  2  2  0
  1  6  1  0
  1  3  1  0
  2  4  1  0
  3 10  1  0
  4  5  2  0
  5  6  1  0
  6  7  1  0
  7  9  1  0
  7  8  2  0
 10 11  2  0
 10 12  1  0
 12 13  2  0
 12 15  1  0
 13 14  1  0
 14 17  2  0
 15 16  2  0
 16 17  1  0
M  END
>  <name>  (650) 
Car Nac Nd0 Car Nac Nac Cs2 .=O Cs3 Cs2 .=O Car Car Car Car Car Car

>  <indices>  (650) 
[0, 1, 2]

>  <tasks>  (650) 
probe_placing close_aromatic_ring close_aromatic_ring close_aromatic_ring ring_built build_to_Nac build_DB_to_Cs2 build_SB_to_Cs2 build_to_Nd0 build_DB_to_Cs2 build_SB_to_Cs2 close_aromatic_ring close_aromatic_ring close_aromatic_ring close_aromatic_ring

>  <prot_clashes>  (650) 
3

>  <NBS phar>  (650) 
0.2

>  <NBS_non-phar>  (650) 
0.39024316563325767

>  <NBS>  (650) 
0.5902431656332576

>  <source_stage>  (650) 
scored

>  <source_iter>  (650) 
14

>  <source_parent_mol>  (650) 
0

>  <source_scenario>  (650) 
1 2 3 1 7 1 0 7 1 1 5 2 0 0

>  <source_rank_in_scored_call>  (650) 
1

>  <source_current_task>  (650) 
close_aromatic_ring

>  <scenario>  (650) 
1 2 3 1 7 1 0 7 1 1 5 2 0

>  <protected_ring_attachments>  (650) 
3,1,0,2|1,0,2;4,5,0,2|5,0,2

>  <current_task>  (650) 
no_task

>  <rotatable_bond_torsions>  (650) 
1,0,2,9;0,2,9,11;0,5,6,8;2,9,11,12;9,11,14,15

$$$$

     RDKit          3D

 20 22  0  0  0  0  0  0  0  0999 V2000
  -28.4140   -6.6360  -30.7990 C   0  0  0  0  0  0  0  0  0  0  0  0
  -27.8450   -6.7250  -32.0350 N   0  0  0  0  0  0  0  0  0  0  0  0
  -28.7060   -7.8750  -30.0060 N   0  0  0  0  0  0  0  0  0  0  0  0
  -27.6600   -5.4830  -32.5120 C   0  0  0  0  0  0  0  0  0  0  0  0
  -28.1250   -4.6300  -31.5580 N   0  0  0  0  0  0  0  0  0  0  0  0
  -28.5750   -5.3250  -30.5310 N   0  0  0  0  0  0  0  0  0  0  0  0
  -29.0940   -4.7770  -29.3750 C   0  0  0  0  0  0  0  0  0  0  0  0
  -29.5630   -5.4160  -28.4450 O   0  0  0  0  0  0  0  0  0  0  0  0
  -28.9870   -3.2630  -29.0930 C   0  0  0  0  0  0  0  0  0  0  0  0
  -28.7920   -8.9970  -30.3920 C   0  0  0  0  0  0  0  0  0  0  0  0
  -28.5230   -9.4680  -31.5670 O   0  0  0  0  0  0  0  0  0  0  0  0
  -29.3300  -10.1490  -29.4640 C   0  0  0  0  0  0  0  0  0  0  0  0
  -29.2880  -11.4000  -30.0470 C   0  0  0  0  0  0  0  0  0  0  0  0
  -29.7220  -12.5220  -29.2130 C   0  0  0  0  0  0  0  0  0  0  0  0
  -29.7600   -9.9820  -28.1640 C   0  0  0  0  0  0  0  0  0  0  0  0
  -30.1600  -11.0790  -27.4210 C   0  0  0  0  0  0  0  0  0  0  0  0
  -30.1450  -12.3400  -27.9320 N   0  0  0  0  0  0  0  0  0  0  0  0
  -29.5870  -13.6490  -30.0190 C   0  0  0  0  0  0  0  0  0  0  0  0
  -29.1080  -13.2870  -31.2610 C   0  0  0  0  0  0  0  0  0  0  0  0
  -28.9210  -11.9000  -31.2850 C   0  0  0  0  0  0  0  0  0  0  0  0
  1  2  2  0
  1  6  1  0
  1  3  1  0
  2  4  1  0
  3 10  1  0
  4  5  2  0
  5  6  1  0
  6  7  1  0
  7  9  1  0
  7  8  2  0
 10 11  2  0
 10 12  1  0
 12 13  2  0
 12 15  1  0
 13 20  1  0
 13 14  1  0
 14 18  2  0
 14 17  1  0
 15 16  2  0
 16 17  1  0
 18 19  1  0
 19 20  2  0
M  END
>  <name>  (651) 
Car Nac Nd0 Car Nac Nac Cs2 .=O Cs3 Cs2 .=O Car Car Car Car Car Nd0 Car Car Car

>  <indices>  (651) 
[0, 1, 2]

>  <tasks>  (651) 
probe_placing close_aromatic_ring close_aromatic_ring close_aromatic_ring ring_built build_to_Nac build_DB_to_Cs2 build_SB_to_Cs2 build_to_Nd0 build_DB_to_Cs2 build_SB_to_Cs2 close_aromatic_ring close_aromatic_ring close_aromatic_ring close_aromatic_ring close_aromatic_ring fix_Car close_aromatic_ring

>  <prot_clashes>  (651) 
3

>  <NBS phar>  (651) 
0.12

>  <NBS_non-phar>  (651) 
0.4214452266693115

>  <NBS>  (651) 
0.5414452266693115

>  <source_stage>  (651) 
scored

>  <source_iter>  (651) 
17

>  <source_parent_mol>  (651) 
1

>  <source_scenario>  (651) 
1 2 3 1 7 1 0 7 1 1 5 2 0 0 0 3 1

>  <source_rank_in_scored_call>  (651) 
0

>  <source_current_task>  (651) 
close_aromatic_ring

>  <scenario>  (651) 
1 2 3 1 7 1 0 7 1 1 5 2 0 0 0 3

>  <protected_ring_attachments>  (651) 
3,1,0,2|1,0,2;4,5,0,2|5,0,2;11,12,13,17|12,13,17;15,16,13,17|16,13,17

>  <current_task>  (651) 
no_task

>  <rotatable_bond_torsions>  (651) 
1,0,2,9;0,2,9,11;0,5,6,8;2,9,11,12

$$$$

     RDKit          3D

 21 23  0  0  0  0  0  0  0  0999 V2000
  -28.2650   -6.6090  -30.7950 C   0  0  0  0  0  0  0  0  0  0  0  0
  -27.8920   -6.8010  -32.0930 N   0  0  0  0  0  0  0  0  0  0  0  0
  -28.5250   -7.7820  -29.8970 N   0  0  0  0  0  0  0  0  0  0  0  0
  -27.6920   -5.6020  -32.6630 C   0  0  0  0  0  0  0  0  0  0  0  0
  -27.9490   -4.6700  -31.7040 N   0  0  0  0  0  0  0  0  0  0  0  0
  -28.2910   -5.2780  -30.5840 N   0  0  0  0  0  0  0  0  0  0  0  0
  -28.5940   -4.6360  -29.4000 C   0  0  0  0  0  0  0  0  0  0  0  0
  -28.9650   -5.1910  -28.3760 O   0  0  0  0  0  0  0  0  0  0  0  0
  -28.3390   -3.1230  -29.2250 C   0  0  0  0  0  0  0  0  0  0  0  0
  -28.7460   -8.9100  -30.2010 C   0  0  0  0  0  0  0  0  0  0  0  0
  -28.6870   -9.4560  -31.3720 O   0  0  0  0  0  0  0  0  0  0  0  0
  -29.2220   -9.9710  -29.1390 C   0  0  0  0  0  0  0  0  0  0  0  0
  -29.3560  -11.2480  -29.6480 C   0  0  0  0  0  0  0  0  0  0  0  0
  -29.7410  -12.2910  -28.6960 C   0  0  0  0  0  0  0  0  0  0  0  0
  -29.4430   -9.7090  -27.8030 C   0  0  0  0  0  0  0  0  0  0  0  0
  -29.8060  -10.7340  -26.9470 C   0  0  0  0  0  0  0  0  0  0  0  0
  -29.9570  -12.0150  -27.3810 N   0  0  0  0  0  0  0  0  0  0  0  0
  -29.8070  -13.4620  -29.4460 C   0  0  0  0  0  0  0  0  0  0  0  0
  -29.4910  -13.1990  -30.7620 C   0  0  0  0  0  0  0  0  0  0  0  0
  -29.2120  -11.8330  -30.8940 C   0  0  0  0  0  0  0  0  0  0  0  0
  -29.1880   -2.4270  -28.1870 C   0  0  0  0  0  0  0  0  0  0  0  0
  1  2  2  0
  1  6  1  0
  1  3  1  0
  2  4  1  0
  3 10  1  0
  4  5  2  0
  5  6  1  0
  6  7  1  0
  7  9  1  0
  7  8  2  0
 10 11  2  0
 10 12  1  0
 12 13  2  0
 12 15  1  0
 13 20  1  0
 13 14  1  0
 14 18  2  0
 14 17  1  0
 15 16  2  0
 16 17  1  0
 18 19  1  0
 19 20  2  0
  9 21  1  0
M  END
>  <name>  (652) 
Car Nac Nd0 Car Nac Nac Cs2 .=O Cs3 Cs2 .=O Car Car Car Car Car Nd0 Car Car Car Cs3

>  <indices>  (652) 
[0, 1, 2]

>  <tasks>  (652) 
probe_placing close_aromatic_ring close_aromatic_ring close_aromatic_ring ring_built build_to_Nac build_DB_to_Cs2 build_SB_to_Cs2 build_to_Nd0 build_DB_to_Cs2 build_SB_to_Cs2 close_aromatic_ring close_aromatic_ring close_aromatic_ring close_aromatic_ring close_aromatic_ring fix_Car close_aromatic_ring close_aromatic_ring

>  <prot_clashes>  (652) 
5

>  <NBS phar>  (652) 
0.22000000000000003

>  <NBS_non-phar>  (652) 
0.46023809342157274

>  <NBS>  (652) 
0.6802380934215728

>  <source_stage>  (652) 
scored

>  <source_iter>  (652) 
18

>  <source_parent_mol>  (652) 
0

>  <source_scenario>  (652) 
1 2 3 1 7 1 0 7 1 1 5 2 0 0 0 3 1 0

>  <source_rank_in_scored_call>  (652) 
1

>  <source_current_task>  (652) 
no_task

>  <scenario>  (652) 
1 2 3 1 7 1 0 7 1 1 5 2 0 0 0 3 1

>  <protected_ring_attachments>  (652) 
3,1,0,2|1,0,2;4,5,0,2|5,0,2;11,12,13,17|12,13,17;15,16,13,17|16,13,17

>  <current_task>  (652) 
no_task

>  <rotatable_bond_torsions>  (652) 
1,0,2,9;0,2,9,11;0,5,6,8;2,9,11,12

$$$$

     RDKit          3D

 21 23  0  0  0  0  0  0  0  0999 V2000
  -28.2470   -6.2810  -30.8000 C   0  0  0  0  0  0  0  0  0  0  0  0
  -27.6340   -6.2630  -32.0180 N   0  0  0  0  0  0  0  0  0  0  0  0
  -28.5530   -7.5830  -30.1230 N   0  0  0  0  0  0  0  0  0  0  0  0
  -27.4460   -4.9840  -32.3850 C   0  0  0  0  0  0  0  0  0  0  0  0
  -27.9540   -4.2170  -31.3810 N   0  0  0  0  0  0  0  0  0  0  0  0
  -28.4320   -4.9970  -30.4320 N   0  0  0  0  0  0  0  0  0  0  0  0
  -28.9980   -4.5510  -29.2540 C   0  0  0  0  0  0  0  0  0  0  0  0
  -29.4920   -5.2680  -28.3970 O   0  0  0  0  0  0  0  0  0  0  0  0
  -28.9180   -3.0640  -28.8450 C   0  0  0  0  0  0  0  0  0  0  0  0
  -28.6130   -8.6700  -30.6020 C   0  0  0  0  0  0  0  0  0  0  0  0
  -28.2970   -9.0410  -31.8020 O   0  0  0  0  0  0  0  0  0  0  0  0
  -29.1710   -9.8990  -29.7920 C   0  0  0  0  0  0  0  0  0  0  0  0
  -29.0940  -11.0970  -30.4740 C   0  0  0  0  0  0  0  0  0  0  0  0
  -29.5450  -12.2880  -29.7510 C   0  0  0  0  0  0  0  0  0  0  0  0
  -29.6480   -9.8430  -28.4990 C   0  0  0  0  0  0  0  0  0  0  0  0
  -30.0620  -11.0010  -27.8640 C   0  0  0  0  0  0  0  0  0  0  0  0
  -30.0150  -12.2150  -28.4760 N   0  0  0  0  0  0  0  0  0  0  0  0
  -29.3690  -13.3430  -30.6410 C   0  0  0  0  0  0  0  0  0  0  0  0
  -28.8500  -12.8760  -31.8310 C   0  0  0  0  0  0  0  0  0  0  0  0
  -28.6780  -11.4910  -31.7350 C   0  0  0  0  0  0  0  0  0  0  0  0
  -29.1770   -2.0690  -29.9790 C   0  0  0  0  0  0  0  0  0  0  0  0
  1  2  2  0
  1  6  1  0
  1  3  1  0
  2  4  1  0
  3 10  1  0
  4  5  2  0
  5  6  1  0
  6  7  1  0
  7  9  1  0
  7  8  2  0
 10 11  2  0
 10 12  1  0
 12 13  2  0
 12 15  1  0
 13 20  1  0
 13 14  1  0
 14 18  2  0
 14 17  1  0
 15 16  2  0
 16 17  1  0
 18 19  1  0
 19 20  2  0
  9 21  1  0
M  END
>  <name>  (653) 
Car Nac Nd0 Car Nac Nac Cs2 .=O Cs3 Cs2 .=O Car Car Car Car Car Nd0 Car Car Car Cs3

>  <indices>  (653) 
[0, 1, 2]

>  <tasks>  (653) 
probe_placing close_aromatic_ring close_aromatic_ring close_aromatic_ring ring_built build_to_Nac build_DB_to_Cs2 build_SB_to_Cs2 build_to_Nd0 build_DB_to_Cs2 build_SB_to_Cs2 close_aromatic_ring close_aromatic_ring close_aromatic_ring close_aromatic_ring close_aromatic_ring fix_Car close_aromatic_ring close_aromatic_ring

>  <prot_clashes>  (653) 
2

>  <NBS phar>  (653) 
0.24000000000000005

>  <NBS_non-phar>  (653) 
0.42934776487804593

>  <NBS>  (653) 
0.6693477648780459

>  <source_stage>  (653) 
scored

>  <source_iter>  (653) 
18

>  <source_parent_mol>  (653) 
0

>  <source_scenario>  (653) 
1 2 3 1 7 1 0 7 1 1 5 2 0 0 0 3 1 0

>  <source_rank_in_scored_call>  (653) 
2

>  <source_current_task>  (653) 
no_task

>  <scenario>  (653) 
1 2 3 1 7 1 0 7 1 1 5 2 0 0 0 3 1

>  <protected_ring_attachments>  (653) 
3,1,0,2|1,0,2;4,5,0,2|5,0,2;11,12,13,17|12,13,17;15,16,13,17|16,13,17

>  <current_task>  (653) 
no_task

>  <rotatable_bond_torsions>  (653) 
1,0,2,9;0,2,9,11;0,5,6,8;2,9,11,12

$$$$

     RDKit          3D

 21 23  0  0  0  0  0  0  0  0999 V2000
  -28.2500   -6.5730  -30.8020 C   0  0  0  0  0  0  0  0  0  0  0  0
  -27.8890   -6.7820  -32.1000 N   0  0  0  0  0  0  0  0  0  0  0  0
  -28.5030   -7.7340  -29.8870 N   0  0  0  0  0  0  0  0  0  0  0  0
  -27.6910   -5.5900  -32.6870 C   0  0  0  0  0  0  0  0  0  0  0  0
  -27.9390   -4.6460  -31.7370 N   0  0  0  0  0  0  0  0  0  0  0  0
  -28.2730   -5.2390  -30.6070 N   0  0  0  0  0  0  0  0  0  0  0  0
  -28.5640   -4.5820  -29.4280 C   0  0  0  0  0  0  0  0  0  0  0  0
  -28.9270   -5.1240  -28.3950 O   0  0  0  0  0  0  0  0  0  0  0  0
  -28.3060   -3.0680  -29.2750 C   0  0  0  0  0  0  0  0  0  0  0  0
  -28.7290   -8.8660  -30.1740 C   0  0  0  0  0  0  0  0  0  0  0  0
  -28.6810   -9.4270  -31.3400 O   0  0  0  0  0  0  0  0  0  0  0  0
  -29.1970   -9.9130  -29.0960 C   0  0  0  0  0  0  0  0  0  0  0  0
  -29.3370  -11.1950  -29.5880 C   0  0  0  0  0  0  0  0  0  0  0  0
  -29.7150  -12.2260  -28.6190 C   0  0  0  0  0  0  0  0  0  0  0  0
  -29.4060   -9.6340  -27.7610 C   0  0  0  0  0  0  0  0  0  0  0  0
  -29.7630  -10.6480  -26.8900 C   0  0  0  0  0  0  0  0  0  0  0  0
  -29.9190  -11.9340  -27.3060 N   0  0  0  0  0  0  0  0  0  0  0  0
  -29.7890  -13.4070  -29.3540 C   0  0  0  0  0  0  0  0  0  0  0  0
  -29.4840  -13.1600  -30.6770 C   0  0  0  0  0  0  0  0  0  0  0  0
  -29.2040  -11.7970  -30.8280 C   0  0  0  0  0  0  0  0  0  0  0  0
  -29.5390   -2.2140  -29.2220 C   0  0  0  0  0  0  0  0  0  0  0  0
  1  2  2  0
  1  6  1  0
  1  3  1  0
  2  4  1  0
  3 10  1  0
  4  5  2  0
  5  6  1  0
  6  7  1  0
  7  9  1  0
  7  8  2  0
 10 11  2  0
 10 12  1  0
 12 13  2  0
 12 15  1  0
 13 20  1  0
 13 14  1  0
 14 18  2  0
 14 17  1  0
 15 16  2  0
 16 17  1  0
 18 19  1  0
 19 20  2  0
  9 21  1  0
M  END
>  <name>  (654) 
Car Nac Nd0 Car Nac Nac Cs2 .=O Cs3 Cs2 .=O Car Car Car Car Car Nd0 Car Car Car Cs3

>  <indices>  (654) 
[0, 1, 2]

>  <tasks>  (654) 
probe_placing close_aromatic_ring close_aromatic_ring close_aromatic_ring ring_built build_to_Nac build_DB_to_Cs2 build_SB_to_Cs2 build_to_Nd0 build_DB_to_Cs2 build_SB_to_Cs2 close_aromatic_ring close_aromatic_ring close_aromatic_ring close_aromatic_ring close_aromatic_ring fix_Car close_aromatic_ring close_aromatic_ring

>  <prot_clashes>  (654) 
7

>  <NBS phar>  (654) 
0.2

>  <NBS_non-phar>  (654) 
0.4506774175734747

>  <NBS>  (654) 
0.6506774175734746

>  <source_stage>  (654) 
scored

>  <source_iter>  (654) 
18

>  <source_parent_mol>  (654) 
0

>  <source_scenario>  (654) 
1 2 3 1 7 1 0 7 1 1 5 2 0 0 0 3 1 0

>  <source_rank_in_scored_call>  (654) 
4

>  <source_current_task>  (654) 
no_task

>  <scenario>  (654) 
1 2 3 1 7 1 0 7 1 1 5 2 0 0 0 3 1

>  <protected_ring_attachments>  (654) 
3,1,0,2|1,0,2;4,5,0,2|5,0,2;11,12,13,17|12,13,17;15,16,13,17|16,13,17

>  <current_task>  (654) 
no_task

>  <rotatable_bond_torsions>  (654) 
1,0,2,9;0,2,9,11;0,5,6,8;2,9,11,12

$$$$

     RDKit          3D

 21 23  0  0  0  0  0  0  0  0999 V2000
  -28.2260   -6.5910  -30.7960 C   0  0  0  0  0  0  0  0  0  0  0  0
  -27.8960   -6.8090  -32.1010 N   0  0  0  0  0  0  0  0  0  0  0  0
  -28.4770   -7.7460  -29.8730 N   0  0  0  0  0  0  0  0  0  0  0  0
  -27.6930   -5.6220  -32.6960 C   0  0  0  0  0  0  0  0  0  0  0  0
  -27.9060   -4.6720  -31.7440 N   0  0  0  0  0  0  0  0  0  0  0  0
  -28.2230   -5.2570  -30.6050 N   0  0  0  0  0  0  0  0  0  0  0  0
  -28.4790   -4.5930  -29.4220 C   0  0  0  0  0  0  0  0  0  0  0  0
  -28.8280   -5.1260  -28.3790 O   0  0  0  0  0  0  0  0  0  0  0  0
  -28.1940   -3.0820  -29.2780 C   0  0  0  0  0  0  0  0  0  0  0  0
  -28.7260   -8.8750  -30.1520 C   0  0  0  0  0  0  0  0  0  0  0  0
  -28.7120   -9.4400  -31.3160 O   0  0  0  0  0  0  0  0  0  0  0  0
  -29.1870   -9.9120  -29.0600 C   0  0  0  0  0  0  0  0  0  0  0  0
  -29.3570  -11.1930  -29.5450 C   0  0  0  0  0  0  0  0  0  0  0  0
  -29.7300  -12.2160  -28.5660 C   0  0  0  0  0  0  0  0  0  0  0  0
  -29.3620   -9.6260  -27.7220 C   0  0  0  0  0  0  0  0  0  0  0  0
  -29.7160  -10.6320  -26.8400 C   0  0  0  0  0  0  0  0  0  0  0  0
  -29.9010  -11.9170  -27.2490 N   0  0  0  0  0  0  0  0  0  0  0  0
  -29.8380  -13.3970  -29.2950 C   0  0  0  0  0  0  0  0  0  0  0  0
  -29.5590  -13.1580  -30.6250 C   0  0  0  0  0  0  0  0  0  0  0  0
  -29.2610  -11.8000  -30.7860 C   0  0  0  0  0  0  0  0  0  0  0  0
  -29.3490   -2.2970  -28.7130 C   0  0  0  0  0  0  0  0  0  0  0  0
  1  2  2  0
  1  6  1  0
  1  3  1  0
  2  4  1  0
  3 10  1  0
  4  5  2  0
  5  6  1  0
  6  7  1  0
  7  9  1  0
  7  8  2  0
 10 11  2  0
 10 12  1  0
 12 13  2  0
 12 15  1  0
 13 20  1  0
 13 14  1  0
 14 18  2  0
 14 17  1  0
 15 16  2  0
 16 17  1  0
 18 19  1  0
 19 20  2  0
  9 21  1  0
M  END
>  <name>  (655) 
Car Nac Nd0 Car Nac Nac Cs2 .=O Cs3 Cs2 .=O Car Car Car Car Car Nd0 Car Car Car Cs3

>  <indices>  (655) 
[0, 1, 2]

>  <tasks>  (655) 
probe_placing close_aromatic_ring close_aromatic_ring close_aromatic_ring ring_built build_to_Nac build_DB_to_Cs2 build_SB_to_Cs2 build_to_Nd0 build_DB_to_Cs2 build_SB_to_Cs2 close_aromatic_ring close_aromatic_ring close_aromatic_ring close_aromatic_ring close_aromatic_ring fix_Car close_aromatic_ring close_aromatic_ring

>  <prot_clashes>  (655) 
7

>  <NBS phar>  (655) 
0.22000000000000003

>  <NBS_non-phar>  (655) 
0.4124064218430292

>  <NBS>  (655) 
0.6324064218430292

>  <source_stage>  (655) 
scored

>  <source_iter>  (655) 
18

>  <source_parent_mol>  (655) 
0

>  <source_scenario>  (655) 
1 2 3 1 7 1 0 7 1 1 5 2 0 0 0 3 1 0

>  <source_rank_in_scored_call>  (655) 
8

>  <source_current_task>  (655) 
no_task

>  <scenario>  (655) 
1 2 3 1 7 1 0 7 1 1 5 2 0 0 0 3 1

>  <protected_ring_attachments>  (655) 
3,1,0,2|1,0,2;4,5,0,2|5,0,2;11,12,13,17|12,13,17;15,16,13,17|16,13,17

>  <current_task>  (655) 
no_task

>  <rotatable_bond_torsions>  (655) 
1,0,2,9;0,2,9,11;0,5,6,8;2,9,11,12

$$$$

     RDKit          3D

 21 23  0  0  0  0  0  0  0  0999 V2000
  -28.2450   -6.4040  -30.7740 C   0  0  0  0  0  0  0  0  0  0  0  0
  -27.6720   -6.4690  -32.0100 N   0  0  0  0  0  0  0  0  0  0  0  0
  -28.5630   -7.6600  -30.0170 N   0  0  0  0  0  0  0  0  0  0  0  0
  -27.4620   -5.2180  -32.4510 C   0  0  0  0  0  0  0  0  0  0  0  0
  -27.9160   -4.3830  -31.4750 N   0  0  0  0  0  0  0  0  0  0  0  0
  -28.3830   -5.0990  -30.4700 N   0  0  0  0  0  0  0  0  0  0  0  0
  -28.8980   -4.5740  -29.3010 C   0  0  0  0  0  0  0  0  0  0  0  0
  -29.3830   -5.2300  -28.3920 O   0  0  0  0  0  0  0  0  0  0  0  0
  -28.7650   -3.0710  -28.9760 C   0  0  0  0  0  0  0  0  0  0  0  0
  -28.6680   -8.7680  -30.4350 C   0  0  0  0  0  0  0  0  0  0  0  0
  -28.4020   -9.2110  -31.6220 O   0  0  0  0  0  0  0  0  0  0  0  0
  -29.2310   -9.9360  -29.5420 C   0  0  0  0  0  0  0  0  0  0  0  0
  -29.2090  -11.1710  -30.1600 C   0  0  0  0  0  0  0  0  0  0  0  0
  -29.6680  -12.3080  -29.3600 C   0  0  0  0  0  0  0  0  0  0  0  0
  -29.6640   -9.7980  -28.2400 C   0  0  0  0  0  0  0  0  0  0  0  0
  -30.0880  -10.9080  -27.5300 C   0  0  0  0  0  0  0  0  0  0  0  0
  -30.0930  -12.1540  -28.0760 N   0  0  0  0  0  0  0  0  0  0  0  0
  -29.5490  -13.4140  -30.1970 C   0  0  0  0  0  0  0  0  0  0  0  0
  -29.0580  -13.0260  -31.4260 C   0  0  0  0  0  0  0  0  0  0  0  0
  -28.8450  -11.6420  -31.4100 C   0  0  0  0  0  0  0  0  0  0  0  0
  -29.5470   -2.2390  -30.0110 C   0  0  0  0  0  0  0  0  0  0  0  0
  1  2  2  0
  1  6  1  0
  1  3  1  0
  2  4  1  0
  3 10  1  0
  4  5  2  0
  5  6  1  0
  6  7  1  0
  7  9  1  0
  7  8  2  0
 10 11  2  0
 10 12  1  0
 12 13  2  0
 12 15  1  0
 13 20  1  0
 13 14  1  0
 14 18  2  0
 14 17  1  0
 15 16  2  0
 16 17  1  0
 18 19  1  0
 19 20  2  0
  9 21  1  0
M  END
>  <name>  (656) 
Car Nac Nd0 Car Nac Nac Cs2 .=O Cs3 Cs2 .=O Car Car Car Car Car Nd0 Car Car Car Cs3

>  <indices>  (656) 
[0, 1, 2]

>  <tasks>  (656) 
probe_placing close_aromatic_ring close_aromatic_ring close_aromatic_ring ring_built build_to_Nac build_DB_to_Cs2 build_SB_to_Cs2 build_to_Nd0 build_DB_to_Cs2 build_SB_to_Cs2 close_aromatic_ring close_aromatic_ring close_aromatic_ring close_aromatic_ring close_aromatic_ring fix_Car close_aromatic_ring close_aromatic_ring

>  <prot_clashes>  (656) 
4

>  <NBS phar>  (656) 
0.2

>  <NBS_non-phar>  (656) 
0.4219817661103748

>  <NBS>  (656) 
0.6219817661103748

>  <source_stage>  (656) 
scored

>  <source_iter>  (656) 
18

>  <source_parent_mol>  (656) 
0

>  <source_scenario>  (656) 
1 2 3 1 7 1 0 7 1 1 5 2 0 0 0 3 1 0

>  <source_rank_in_scored_call>  (656) 
11

>  <source_current_task>  (656) 
no_task

>  <scenario>  (656) 
1 2 3 1 7 1 0 7 1 1 5 2 0 0 0 3 1

>  <protected_ring_attachments>  (656) 
3,1,0,2|1,0,2;4,5,0,2|5,0,2;11,12,13,17|12,13,17;15,16,13,17|16,13,17

>  <current_task>  (656) 
no_task

>  <rotatable_bond_torsions>  (656) 
1,0,2,9;0,2,9,11;0,5,6,8;2,9,11,12

$$$$

     RDKit          3D

 21 23  0  0  0  0  0  0  0  0999 V2000
  -28.3170   -6.4830  -30.7780 C   0  0  0  0  0  0  0  0  0  0  0  0
  -27.7080   -6.4720  -31.9980 N   0  0  0  0  0  0  0  0  0  0  0  0
  -28.5990   -7.7810  -30.0820 N   0  0  0  0  0  0  0  0  0  0  0  0
  -27.5430   -5.1950  -32.3830 C   0  0  0  0  0  0  0  0  0  0  0  0
  -28.0600   -4.4220  -31.3880 N   0  0  0  0  0  0  0  0  0  0  0  0
  -28.5220   -5.1980  -30.4260 N   0  0  0  0  0  0  0  0  0  0  0  0
  -29.0900   -4.7450  -29.2530 C   0  0  0  0  0  0  0  0  0  0  0  0
  -29.5700   -5.4590  -28.3840 O   0  0  0  0  0  0  0  0  0  0  0  0
  -29.0330   -3.2520  -28.8640 C   0  0  0  0  0  0  0  0  0  0  0  0
  -28.6420   -8.8750  -30.5470 C   0  0  0  0  0  0  0  0  0  0  0  0
  -28.3250   -9.2570  -31.7420 O   0  0  0  0  0  0  0  0  0  0  0  0
  -29.1760  -10.1020  -29.7180 C   0  0  0  0  0  0  0  0  0  0  0  0
  -29.0820  -11.3080  -30.3840 C   0  0  0  0  0  0  0  0  0  0  0  0
  -29.5110  -12.4960  -29.6430 C   0  0  0  0  0  0  0  0  0  0  0  0
  -29.6500  -10.0370  -28.4240 C   0  0  0  0  0  0  0  0  0  0  0  0
  -30.0420  -11.1930  -27.7710 C   0  0  0  0  0  0  0  0  0  0  0  0
  -29.9770  -12.4140  -28.3670 N   0  0  0  0  0  0  0  0  0  0  0  0
  -29.3200  -13.5610  -30.5200 C   0  0  0  0  0  0  0  0  0  0  0  0
  -28.8140  -13.1010  -31.7180 C   0  0  0  0  0  0  0  0  0  0  0  0
  -28.6640  -11.7120  -31.6410 C   0  0  0  0  0  0  0  0  0  0  0  0
  -27.7040   -2.7670  -28.3640 C   0  0  0  0  0  0  0  0  0  0  0  0
  1  2  2  0
  1  6  1  0
  1  3  1  0
  2  4  1  0
  3 10  1  0
  4  5  2  0
  5  6  1  0
  6  7  1  0
  7  9  1  0
  7  8  2  0
 10 11  2  0
 10 12  1  0
 12 13  2  0
 12 15  1  0
 13 20  1  0
 13 14  1  0
 14 18  2  0
 14 17  1  0
 15 16  2  0
 16 17  1  0
 18 19  1  0
 19 20  2  0
  9 21  1  0
M  END
>  <name>  (657) 
Car Nac Nd0 Car Nac Nac Cs2 .=O Cs3 Cs2 .=O Car Car Car Car Car Nd0 Car Car Car Cs3

>  <indices>  (657) 
[0, 1, 2]

>  <tasks>  (657) 
probe_placing close_aromatic_ring close_aromatic_ring close_aromatic_ring ring_built build_to_Nac build_DB_to_Cs2 build_SB_to_Cs2 build_to_Nd0 build_DB_to_Cs2 build_SB_to_Cs2 close_aromatic_ring close_aromatic_ring close_aromatic_ring close_aromatic_ring close_aromatic_ring fix_Car close_aromatic_ring close_aromatic_ring

>  <prot_clashes>  (657) 
3

>  <NBS phar>  (657) 
0.22000000000000003

>  <NBS_non-phar>  (657) 
0.3998626073201497

>  <NBS>  (657) 
0.6198626073201497

>  <source_stage>  (657) 
scored

>  <source_iter>  (657) 
18

>  <source_parent_mol>  (657) 
0

>  <source_scenario>  (657) 
1 2 3 1 7 1 0 7 1 1 5 2 0 0 0 3 1 0

>  <source_rank_in_scored_call>  (657) 
12

>  <source_current_task>  (657) 
no_task

>  <scenario>  (657) 
1 2 3 1 7 1 0 7 1 1 5 2 0 0 0 3 1

>  <protected_ring_attachments>  (657) 
3,1,0,2|1,0,2;4,5,0,2|5,0,2;11,12,13,17|12,13,17;15,16,13,17|16,13,17

>  <current_task>  (657) 
no_task

>  <rotatable_bond_torsions>  (657) 
1,0,2,9;0,2,9,11;0,5,6,8;2,9,11,12

$$$$

     RDKit          3D

 21 23  0  0  0  0  0  0  0  0999 V2000
  -28.3450   -6.5600  -30.7540 C   0  0  0  0  0  0  0  0  0  0  0  0
  -27.8440   -6.7010  -32.0140 N   0  0  0  0  0  0  0  0  0  0  0  0
  -28.6190   -7.7670  -29.9060 N   0  0  0  0  0  0  0  0  0  0  0  0
  -27.6610   -5.4790  -32.5410 C   0  0  0  0  0  0  0  0  0  0  0  0
  -28.0590   -4.5860  -31.5930 N   0  0  0  0  0  0  0  0  0  0  0  0
  -28.4670   -5.2380  -30.5210 N   0  0  0  0  0  0  0  0  0  0  0  0
  -28.9130   -4.6430  -29.3590 C   0  0  0  0  0  0  0  0  0  0  0  0
  -29.3450   -5.2420  -28.3850 O   0  0  0  0  0  0  0  0  0  0  0  0
  -28.7630   -3.1230  -29.1330 C   0  0  0  0  0  0  0  0  0  0  0  0
  -28.7460   -8.8990  -30.2500 C   0  0  0  0  0  0  0  0  0  0  0  0
  -28.5490   -9.4130  -31.4210 O   0  0  0  0  0  0  0  0  0  0  0  0
  -29.2570  -10.0090  -29.2570 C   0  0  0  0  0  0  0  0  0  0  0  0
  -29.2690  -11.2780  -29.8000 C   0  0  0  0  0  0  0  0  0  0  0  0
  -29.6800  -12.3640  -28.9070 C   0  0  0  0  0  0  0  0  0  0  0  0
  -29.6140   -9.7910  -27.9430 C   0  0  0  0  0  0  0  0  0  0  0  0
  -29.9950  -10.8550  -27.1440 C   0  0  0  0  0  0  0  0  0  0  0  0
  -30.0310  -12.1320  -27.6130 N   0  0  0  0  0  0  0  0  0  0  0  0
  -29.6100  -13.5190  -29.6810 C   0  0  0  0  0  0  0  0  0  0  0  0
  -29.1900  -13.2070  -30.9580 C   0  0  0  0  0  0  0  0  0  0  0  0
  -28.9780  -11.8260  -31.0380 C   0  0  0  0  0  0  0  0  0  0  0  0
  -29.1890   -2.6650  -27.7760 C   0  0  0  0  0  0  0  0  0  0  0  0
  1  2  2  0
  1  6  1  0
  1  3  1  0
  2  4  1  0
  3 10  1  0
  4  5  2  0
  5  6  1  0
  6  7  1  0
  7  9  1  0
  7  8  2  0
 10 11  2  0
 10 12  1  0
 12 13  2  0
 12 15  1  0
 13 20  1  0
 13 14  1  0
 14 18  2  0
 14 17  1  0
 15 16  2  0
 16 17  1  0
 18 19  1  0
 19 20  2  0
  9 21  1  0
M  END
>  <name>  (658) 
Car Nac Nd0 Car Nac Nac Cs2 .=O Cs3 Cs2 .=O Car Car Car Car Car Nd0 Car Car Car Cs3

>  <indices>  (658) 
[0, 1, 2]

>  <tasks>  (658) 
probe_placing close_aromatic_ring close_aromatic_ring close_aromatic_ring ring_built build_to_Nac build_DB_to_Cs2 build_SB_to_Cs2 build_to_Nd0 build_DB_to_Cs2 build_SB_to_Cs2 close_aromatic_ring close_aromatic_ring close_aromatic_ring close_aromatic_ring close_aromatic_ring fix_Car close_aromatic_ring close_aromatic_ring

>  <prot_clashes>  (658) 
5

>  <NBS phar>  (658) 
0.13999999999999999

>  <NBS_non-phar>  (658) 
0.46707171485537574

>  <NBS>  (658) 
0.6070717148553757

>  <source_stage>  (658) 
scored

>  <source_iter>  (658) 
18

>  <source_parent_mol>  (658) 
0

>  <source_scenario>  (658) 
1 2 3 1 7 1 0 7 1 1 5 2 0 0 0 3 1 0

>  <source_rank_in_scored_call>  (658) 
13

>  <source_current_task>  (658) 
no_task

>  <scenario>  (658) 
1 2 3 1 7 1 0 7 1 1 5 2 0 0 0 3 1

>  <protected_ring_attachments>  (658) 
3,1,0,2|1,0,2;4,5,0,2|5,0,2;11,12,13,17|12,13,17;15,16,13,17|16,13,17

>  <current_task>  (658) 
no_task

>  <rotatable_bond_torsions>  (658) 
1,0,2,9;0,2,9,11;0,5,6,8;2,9,11,12

$$$$

     RDKit          3D

 21 23  0  0  0  0  0  0  0  0999 V2000
  -28.2390   -6.6170  -30.8260 C   0  0  0  0  0  0  0  0  0  0  0  0
  -27.9800   -6.8410  -32.1460 N   0  0  0  0  0  0  0  0  0  0  0  0
  -28.4330   -7.7680  -29.8840 N   0  0  0  0  0  0  0  0  0  0  0  0
  -27.8160   -5.6560  -32.7570 C   0  0  0  0  0  0  0  0  0  0  0  0
  -27.9810   -4.7020  -31.8000 N   0  0  0  0  0  0  0  0  0  0  0  0
  -28.2320   -5.2820  -30.6430 N   0  0  0  0  0  0  0  0  0  0  0  0
  -28.4260   -4.6120  -29.4510 C   0  0  0  0  0  0  0  0  0  0  0  0
  -28.7140   -5.1410  -28.3880 O   0  0  0  0  0  0  0  0  0  0  0  0
  -28.1410   -3.1000  -29.3310 C   0  0  0  0  0  0  0  0  0  0  0  0
  -28.6920   -8.9000  -30.1430 C   0  0  0  0  0  0  0  0  0  0  0  0
  -28.7400   -9.4710  -31.3040 O   0  0  0  0  0  0  0  0  0  0  0  0
  -29.0880   -9.9320  -29.0230 C   0  0  0  0  0  0  0  0  0  0  0  0
  -29.2780  -11.2170  -29.4900 C   0  0  0  0  0  0  0  0  0  0  0  0
  -29.5920  -12.2360  -28.4870 C   0  0  0  0  0  0  0  0  0  0  0  0
  -29.1910   -9.6400  -27.6780 C   0  0  0  0  0  0  0  0  0  0  0  0
  -29.4910  -10.6420  -26.7730 C   0  0  0  0  0  0  0  0  0  0  0  0
  -29.6910  -11.9300  -27.1640 N   0  0  0  0  0  0  0  0  0  0  0  0
  -29.7340  -13.4210  -29.2030 C   0  0  0  0  0  0  0  0  0  0  0  0
  -29.5290  -13.1890  -30.5470 C   0  0  0  0  0  0  0  0  0  0  0  0
  -29.2470  -11.8300  -30.7320 C   0  0  0  0  0  0  0  0  0  0  0  0
  -29.1890   -2.4010  -28.5260 C   0  0  0  0  0  0  0  0  0  0  0  0
  1  2  2  0
  1  6  1  0
  1  3  1  0
  2  4  1  0
  3 10  1  0
  4  5  2  0
  5  6  1  0
  6  7  1  0
  7  9  1  0
  7  8  2  0
 10 11  2  0
 10 12  1  0
 12 13  2  0
 12 15  1  0
 13 20  1  0
 13 14  1  0
 14 18  2  0
 14 17  1  0
 15 16  2  0
 16 17  1  0
 18 19  1  0
 19 20  2  0
  9 21  1  0
M  END
>  <name>  (659) 
Car Nac Nd0 Car Nac Nac Cs2 .=O Cs3 Cs2 .=O Car Car Car Car Car Nd0 Car Car Car Cs3

>  <indices>  (659) 
[0, 1, 2]

>  <tasks>  (659) 
probe_placing close_aromatic_ring close_aromatic_ring close_aromatic_ring ring_built build_to_Nac build_DB_to_Cs2 build_SB_to_Cs2 build_to_Nd0 build_DB_to_Cs2 build_SB_to_Cs2 close_aromatic_ring close_aromatic_ring close_aromatic_ring close_aromatic_ring close_aromatic_ring fix_Car close_aromatic_ring close_aromatic_ring

>  <prot_clashes>  (659) 
7

>  <NBS phar>  (659) 
0.22000000000000003

>  <NBS_non-phar>  (659) 
0.3853986376807803

>  <NBS>  (659) 
0.6053986376807803

>  <source_stage>  (659) 
scored

>  <source_iter>  (659) 
18

>  <source_parent_mol>  (659) 
0

>  <source_scenario>  (659) 
1 2 3 1 7 1 0 7 1 1 5 2 0 0 0 3 1 0

>  <source_rank_in_scored_call>  (659) 
14

>  <source_current_task>  (659) 
no_task

>  <scenario>  (659) 
1 2 3 1 7 1 0 7 1 1 5 2 0 0 0 3 1

>  <protected_ring_attachments>  (659) 
3,1,0,2|1,0,2;4,5,0,2|5,0,2;11,12,13,17|12,13,17;15,16,13,17|16,13,17

>  <current_task>  (659) 
no_task

>  <rotatable_bond_torsions>  (659) 
1,0,2,9;0,2,9,11;0,5,6,8;2,9,11,12

$$$$

     RDKit          3D

 21 23  0  0  0  0  0  0  0  0999 V2000
  -28.3790   -6.5410  -30.7560 C   0  0  0  0  0  0  0  0  0  0  0  0
  -27.8230   -6.6820  -31.9930 N   0  0  0  0  0  0  0  0  0  0  0  0
  -28.6840   -7.7470  -29.9180 N   0  0  0  0  0  0  0  0  0  0  0  0
  -27.6210   -5.4600  -32.5130 C   0  0  0  0  0  0  0  0  0  0  0  0
  -28.0630   -4.5670  -31.5850 N   0  0  0  0  0  0  0  0  0  0  0  0
  -28.5150   -5.2190  -30.5310 N   0  0  0  0  0  0  0  0  0  0  0  0
  -29.0140   -4.6230  -29.3900 C   0  0  0  0  0  0  0  0  0  0  0  0
  -29.4860   -5.2220  -28.4350 O   0  0  0  0  0  0  0  0  0  0  0  0
  -28.8790   -3.1030  -29.1610 C   0  0  0  0  0  0  0  0  0  0  0  0
  -28.7920   -8.8800  -30.2650 C   0  0  0  0  0  0  0  0  0  0  0  0
  -28.5420   -9.3950  -31.4260 O   0  0  0  0  0  0  0  0  0  0  0  0
  -29.3410   -9.9900  -29.2940 C   0  0  0  0  0  0  0  0  0  0  0  0
  -29.3250  -11.2610  -29.8340 C   0  0  0  0  0  0  0  0  0  0  0  0
  -29.7710  -12.3470  -28.9590 C   0  0  0  0  0  0  0  0  0  0  0  0
  -29.7560   -9.7720  -27.9970 C   0  0  0  0  0  0  0  0  0  0  0  0
  -30.1680  -10.8360  -27.2130 C   0  0  0  0  0  0  0  0  0  0  0  0
  -30.1790  -12.1140  -27.6810 N   0  0  0  0  0  0  0  0  0  0  0  0
  -29.6620  -13.5020  -29.7270 C   0  0  0  0  0  0  0  0  0  0  0  0
  -29.1880  -13.1910  -30.9850 C   0  0  0  0  0  0  0  0  0  0  0  0
  -28.9780  -11.8090  -31.0570 C   0  0  0  0  0  0  0  0  0  0  0  0
  -28.9700   -2.8030  -27.7310 C   0  0  0  0  0  0  0  0  0  0  0  0
  1  2  2  0
  1  6  1  0
  1  3  1  0
  2  4  1  0
  3 10  1  0
  4  5  2  0
  5  6  1  0
  6  7  1  0
  7  9  1  0
  7  8  2  0
 10 11  2  0
 10 12  1  0
 12 13  2  0
 12 15  1  0
 13 20  1  0
 13 14  1  0
 14 18  2  0
 14 17  1  0
 15 16  2  0
 16 17  1  0
 18 19  1  0
 19 20  2  0
  9 21  1  0
M  END
>  <name>  (660) 
Car Nac Nd0 Car Nac Nac Cs2 .=O Cs3 Cs2 .=O Car Car Car Car Car Nd0 Car Car Car Cs3

>  <indices>  (660) 
[0, 1, 2]

>  <tasks>  (660) 
probe_placing close_aromatic_ring close_aromatic_ring close_aromatic_ring ring_built build_to_Nac build_DB_to_Cs2 build_SB_to_Cs2 build_to_Nd0 build_DB_to_Cs2 build_SB_to_Cs2 close_aromatic_ring close_aromatic_ring close_aromatic_ring close_aromatic_ring close_aromatic_ring fix_Car close_aromatic_ring close_aromatic_ring

>  <prot_clashes>  (660) 
5

>  <NBS phar>  (660) 
0.13999999999999999

>  <NBS_non-phar>  (660) 
0.4616889499482654

>  <NBS>  (660) 
0.6016889499482654

>  <source_stage>  (660) 
scored

>  <source_iter>  (660) 
18

>  <source_parent_mol>  (660) 
0

>  <source_scenario>  (660) 
1 2 3 1 7 1 0 7 1 1 5 2 0 0 0 3 1 0

>  <source_rank_in_scored_call>  (660) 
16

>  <source_current_task>  (660) 
no_task

>  <scenario>  (660) 
1 2 3 1 7 1 0 7 1 1 5 2 0 0 0 3 1

>  <protected_ring_attachments>  (660) 
3,1,0,2|1,0,2;4,5,0,2|5,0,2;11,12,13,17|12,13,17;15,16,13,17|16,13,17

>  <current_task>  (660) 
no_task

>  <rotatable_bond_torsions>  (660) 
1,0,2,9;0,2,9,11;0,5,6,8;2,9,11,12

$$$$

     RDKit          3D

 21 23  0  0  0  0  0  0  0  0999 V2000
  -28.3960   -6.5960  -30.7760 C   0  0  0  0  0  0  0  0  0  0  0  0
  -27.8370   -6.7130  -32.0140 N   0  0  0  0  0  0  0  0  0  0  0  0
  -28.7000   -7.8180  -29.9610 N   0  0  0  0  0  0  0  0  0  0  0  0
  -27.6380   -5.4820  -32.5130 C   0  0  0  0  0  0  0  0  0  0  0  0
  -28.0840   -4.6070  -31.5700 N   0  0  0  0  0  0  0  0  0  0  0  0
  -28.5370   -5.2790  -30.5290 N   0  0  0  0  0  0  0  0  0  0  0  0
  -29.0400   -4.7050  -29.3780 C   0  0  0  0  0  0  0  0  0  0  0  0
  -29.5110   -5.3220  -28.4350 O   0  0  0  0  0  0  0  0  0  0  0  0
  -28.9090   -3.1880  -29.1220 C   0  0  0  0  0  0  0  0  0  0  0  0
  -28.8050   -8.9450  -30.3280 C   0  0  0  0  0  0  0  0  0  0  0  0
  -28.5510   -9.4390  -31.4970 O   0  0  0  0  0  0  0  0  0  0  0  0
  -29.3530  -10.0740  -29.3780 C   0  0  0  0  0  0  0  0  0  0  0  0
  -29.3330  -11.3340  -29.9410 C   0  0  0  0  0  0  0  0  0  0  0  0
  -29.7770  -12.4360  -29.0850 C   0  0  0  0  0  0  0  0  0  0  0  0
  -29.7710   -9.8790  -28.0780 C   0  0  0  0  0  0  0  0  0  0  0  0
  -30.1810  -10.9580  -27.3140 C   0  0  0  0  0  0  0  0  0  0  0  0
  -30.1880  -12.2280  -27.8050 N   0  0  0  0  0  0  0  0  0  0  0  0
  -29.6640  -13.5780  -29.8740 C   0  0  0  0  0  0  0  0  0  0  0  0
  -29.1880  -13.2430  -31.1250 C   0  0  0  0  0  0  0  0  0  0  0  0
  -28.9820  -11.8600  -31.1730 C   0  0  0  0  0  0  0  0  0  0  0  0
  -27.9780   -2.8570  -27.9850 C   0  0  0  0  0  0  0  0  0  0  0  0
  1  2  2  0
  1  6  1  0
  1  3  1  0
  2  4  1  0
  3 10  1  0
  4  5  2  0
  5  6  1  0
  6  7  1  0
  7  9  1  0
  7  8  2  0
 10 11  2  0
 10 12  1  0
 12 13  2  0
 12 15  1  0
 13 20  1  0
 13 14  1  0
 14 18  2  0
 14 17  1  0
 15 16  2  0
 16 17  1  0
 18 19  1  0
 19 20  2  0
  9 21  1  0
M  END
>  <name>  (661) 
Car Nac Nd0 Car Nac Nac Cs2 .=O Cs3 Cs2 .=O Car Car Car Car Car Nd0 Car Car Car Cs3

>  <indices>  (661) 
[0, 1, 2]

>  <tasks>  (661) 
probe_placing close_aromatic_ring close_aromatic_ring close_aromatic_ring ring_built build_to_Nac build_DB_to_Cs2 build_SB_to_Cs2 build_to_Nd0 build_DB_to_Cs2 build_SB_to_Cs2 close_aromatic_ring close_aromatic_ring close_aromatic_ring close_aromatic_ring close_aromatic_ring fix_Car close_aromatic_ring close_aromatic_ring

>  <prot_clashes>  (661) 
3

>  <NBS phar>  (661) 
0.12

>  <NBS_non-phar>  (661) 
0.4706790106637137

>  <NBS>  (661) 
0.5906790106637136

>  <source_stage>  (661) 
scored

>  <source_iter>  (661) 
18

>  <source_parent_mol>  (661) 
0

>  <source_scenario>  (661) 
1 2 3 1 7 1 0 7 1 1 5 2 0 0 0 3 1 0

>  <source_rank_in_scored_call>  (661) 
19

>  <source_current_task>  (661) 
no_task

>  <scenario>  (661) 
1 2 3 1 7 1 0 7 1 1 5 2 0 0 0 3 1

>  <protected_ring_attachments>  (661) 
3,1,0,2|1,0,2;4,5,0,2|5,0,2;11,12,13,17|12,13,17;15,16,13,17|16,13,17

>  <current_task>  (661) 
no_task

>  <rotatable_bond_torsions>  (661) 
1,0,2,9;0,2,9,11;0,5,6,8;2,9,11,12

$$$$

     RDKit          3D

 21 23  0  0  0  0  0  0  0  0999 V2000
  -28.2220   -6.3620  -30.8010 C   0  0  0  0  0  0  0  0  0  0  0  0
  -27.6760   -6.4260  -32.0490 N   0  0  0  0  0  0  0  0  0  0  0  0
  -28.5360   -7.6170  -30.0440 N   0  0  0  0  0  0  0  0  0  0  0  0
  -27.4640   -5.1750  -32.4890 C   0  0  0  0  0  0  0  0  0  0  0  0
  -27.8880   -4.3410  -31.5000 N   0  0  0  0  0  0  0  0  0  0  0  0
  -28.3410   -5.0560  -30.4880 N   0  0  0  0  0  0  0  0  0  0  0  0
  -28.8250   -4.5320  -29.3060 C   0  0  0  0  0  0  0  0  0  0  0  0
  -29.2970   -5.1880  -28.3890 O   0  0  0  0  0  0  0  0  0  0  0  0
  -28.6700   -3.0320  -28.9770 C   0  0  0  0  0  0  0  0  0  0  0  0
  -28.6610   -8.7230  -30.4650 C   0  0  0  0  0  0  0  0  0  0  0  0
  -28.4250   -9.1630  -31.6590 O   0  0  0  0  0  0  0  0  0  0  0  0
  -29.2160   -9.8900  -29.5650 C   0  0  0  0  0  0  0  0  0  0  0  0
  -29.2200  -11.1210  -30.1890 C   0  0  0  0  0  0  0  0  0  0  0  0
  -29.6720  -12.2580  -29.3840 C   0  0  0  0  0  0  0  0  0  0  0  0
  -29.6200   -9.7530  -28.2530 C   0  0  0  0  0  0  0  0  0  0  0  0
  -30.0390  -10.8630  -27.5390 C   0  0  0  0  0  0  0  0  0  0  0  0
  -30.0680  -12.1060  -28.0910 N   0  0  0  0  0  0  0  0  0  0  0  0
  -29.5830  -13.3610  -30.2290 C   0  0  0  0  0  0  0  0  0  0  0  0
  -29.1140  -12.9720  -31.4670 C   0  0  0  0  0  0  0  0  0  0  0  0
  -28.8880  -11.5910  -31.4490 C   0  0  0  0  0  0  0  0  0  0  0  0
  -29.5150   -2.2160  -29.9510 C   0  0  0  0  0  0  0  0  0  0  0  0
  1  2  2  0
  1  6  1  0
  1  3  1  0
  2  4  1  0
  3 10  1  0
  4  5  2  0
  5  6  1  0
  6  7  1  0
  7  9  1  0
  7  8  2  0
 10 11  2  0
 10 12  1  0
 12 13  2  0
 12 15  1  0
 13 20  1  0
 13 14  1  0
 14 18  2  0
 14 17  1  0
 15 16  2  0
 16 17  1  0
 18 19  1  0
 19 20  2  0
  9 21  1  0
M  END
>  <name>  (662) 
Car Nac Nd0 Car Nac Nac Cs2 .=O Cs3 Cs2 .=O Car Car Car Car Car Nd0 Car Car Car Cs3

>  <indices>  (662) 
[0, 1, 2]

>  <tasks>  (662) 
probe_placing close_aromatic_ring close_aromatic_ring close_aromatic_ring ring_built build_to_Nac build_DB_to_Cs2 build_SB_to_Cs2 build_to_Nd0 build_DB_to_Cs2 build_SB_to_Cs2 close_aromatic_ring close_aromatic_ring close_aromatic_ring close_aromatic_ring close_aromatic_ring fix_Car close_aromatic_ring close_aromatic_ring

>  <prot_clashes>  (662) 
4

>  <NBS phar>  (662) 
0.15999999999999998

>  <NBS_non-phar>  (662) 
0.40864453996930805

>  <NBS>  (662) 
0.5686445399693081

>  <source_stage>  (662) 
scored

>  <source_iter>  (662) 
18

>  <source_parent_mol>  (662) 
0

>  <source_scenario>  (662) 
1 2 3 1 7 1 0 7 1 1 5 2 0 0 0 3 1 0

>  <source_rank_in_scored_call>  (662) 
22

>  <source_current_task>  (662) 
no_task

>  <scenario>  (662) 
1 2 3 1 7 1 0 7 1 1 5 2 0 0 0 3 1

>  <protected_ring_attachments>  (662) 
3,1,0,2|1,0,2;4,5,0,2|5,0,2;11,12,13,17|12,13,17;15,16,13,17|16,13,17

>  <current_task>  (662) 
no_task

>  <rotatable_bond_torsions>  (662) 
1,0,2,9;0,2,9,11;0,5,6,8;2,9,11,12

$$$$

     RDKit          3D

 21 23  0  0  0  0  0  0  0  0999 V2000
  -28.4120   -6.6360  -30.7990 C   0  0  0  0  0  0  0  0  0  0  0  0
  -27.8430   -6.7240  -32.0350 N   0  0  0  0  0  0  0  0  0  0  0  0
  -28.7010   -7.8750  -30.0050 N   0  0  0  0  0  0  0  0  0  0  0  0
  -27.6610   -5.4820  -32.5130 C   0  0  0  0  0  0  0  0  0  0  0  0
  -28.1280   -4.6300  -31.5600 N   0  0  0  0  0  0  0  0  0  0  0  0
  -28.5760   -5.3250  -30.5320 N   0  0  0  0  0  0  0  0  0  0  0  0
  -29.0960   -4.7770  -29.3760 C   0  0  0  0  0  0  0  0  0  0  0  0
  -29.5630   -5.4170  -28.4460 O   0  0  0  0  0  0  0  0  0  0  0  0
  -28.9920   -3.2630  -29.0950 C   0  0  0  0  0  0  0  0  0  0  0  0
  -28.7850   -8.9970  -30.3900 C   0  0  0  0  0  0  0  0  0  0  0  0
  -28.5150   -9.4690  -31.5650 O   0  0  0  0  0  0  0  0  0  0  0  0
  -29.3200  -10.1500  -29.4610 C   0  0  0  0  0  0  0  0  0  0  0  0
  -29.2760  -11.4010  -30.0430 C   0  0  0  0  0  0  0  0  0  0  0  0
  -29.7070  -12.5240  -29.2080 C   0  0  0  0  0  0  0  0  0  0  0  0
  -29.7500   -9.9830  -28.1610 C   0  0  0  0  0  0  0  0  0  0  0  0
  -30.1480  -11.0800  -27.4170 C   0  0  0  0  0  0  0  0  0  0  0  0
  -30.1300  -12.3420  -27.9270 N   0  0  0  0  0  0  0  0  0  0  0  0
  -29.5700  -13.6510  -30.0140 C   0  0  0  0  0  0  0  0  0  0  0  0
  -29.0920  -13.2890  -31.2560 C   0  0  0  0  0  0  0  0  0  0  0  0
  -28.9080  -11.9010  -31.2810 C   0  0  0  0  0  0  0  0  0  0  0  0
  -28.8130  -14.2330  -32.3990 C   0  0  0  0  0  0  0  0  0  0  0  0
  1  2  2  0
  1  6  1  0
  1  3  1  0
  2  4  1  0
  3 10  1  0
  4  5  2  0
  5  6  1  0
  6  7  1  0
  7  9  1  0
  7  8  2  0
 10 11  2  0
 10 12  1  0
 12 13  2  0
 12 15  1  0
 13 20  1  0
 13 14  1  0
 14 18  2  0
 14 17  1  0
 15 16  2  0
 16 17  1  0
 18 19  1  0
 19 21  1  0
 19 20  2  0
M  END
>  <name>  (663) 
Car Nac Nd0 Car Nac Nac Cs2 .=O Cs3 Cs2 .=O Car Car Car Car Car Nd0 Car Car Car Cs3

>  <indices>  (663) 
[0, 1, 2]

>  <tasks>  (663) 
probe_placing close_aromatic_ring close_aromatic_ring close_aromatic_ring ring_built build_to_Nac build_DB_to_Cs2 build_SB_to_Cs2 build_to_Nd0 build_DB_to_Cs2 build_SB_to_Cs2 close_aromatic_ring close_aromatic_ring close_aromatic_ring close_aromatic_ring close_aromatic_ring fix_Car close_aromatic_ring close_aromatic_ring

>  <prot_clashes>  (663) 
4

>  <NBS phar>  (663) 
0.12

>  <NBS_non-phar>  (663) 
0.44482957749139695

>  <NBS>  (663) 
0.564829577491397

>  <source_stage>  (663) 
scored

>  <source_iter>  (663) 
18

>  <source_parent_mol>  (663) 
0

>  <source_scenario>  (663) 
1 2 3 1 7 1 0 7 1 1 5 2 0 0 0 3 1 0

>  <source_rank_in_scored_call>  (663) 
26

>  <source_current_task>  (663) 
no_task

>  <scenario>  (663) 
1 2 3 1 7 1 0 7 1 1 5 2 0 0 0 3 1

>  <protected_ring_attachments>  (663) 
3,1,0,2|1,0,2;4,5,0,2|5,0,2;11,12,13,17|12,13,17;15,16,13,17|16,13,17

>  <current_task>  (663) 
no_task

>  <rotatable_bond_torsions>  (663) 
1,0,2,9;0,2,9,11;0,5,6,8;2,9,11,12

$$$$

     RDKit          3D

 21 23  0  0  0  0  0  0  0  0999 V2000
  -28.3930   -6.5470  -30.7730 C   0  0  0  0  0  0  0  0  0  0  0  0
  -27.8040   -6.6880  -31.9950 N   0  0  0  0  0  0  0  0  0  0  0  0
  -28.7150   -7.7520  -29.9410 N   0  0  0  0  0  0  0  0  0  0  0  0
  -27.5940   -5.4670  -32.5130 C   0  0  0  0  0  0  0  0  0  0  0  0
  -28.0630   -4.5740  -31.5990 N   0  0  0  0  0  0  0  0  0  0  0  0
  -28.5400   -5.2250  -30.5550 N   0  0  0  0  0  0  0  0  0  0  0  0
  -29.0710   -4.6280  -29.4290 C   0  0  0  0  0  0  0  0  0  0  0  0
  -29.5640   -5.2270  -28.4850 O   0  0  0  0  0  0  0  0  0  0  0  0
  -28.9480   -3.1070  -29.2010 C   0  0  0  0  0  0  0  0  0  0  0  0
  -28.8100   -8.8860  -30.2870 C   0  0  0  0  0  0  0  0  0  0  0  0
  -28.5280   -9.4030  -31.4390 O   0  0  0  0  0  0  0  0  0  0  0  0
  -29.3790   -9.9960  -29.3270 C   0  0  0  0  0  0  0  0  0  0  0  0
  -29.3450  -11.2680  -29.8640 C   0  0  0  0  0  0  0  0  0  0  0  0
  -29.8080  -12.3530  -28.9970 C   0  0  0  0  0  0  0  0  0  0  0  0
  -29.8290   -9.7770  -28.0420 C   0  0  0  0  0  0  0  0  0  0  0  0
  -30.2560  -10.8400  -27.2670 C   0  0  0  0  0  0  0  0  0  0  0  0
  -30.2500  -12.1190  -27.7310 N   0  0  0  0  0  0  0  0  0  0  0  0
  -29.6750  -13.5110  -29.7600 C   0  0  0  0  0  0  0  0  0  0  0  0
  -29.1700  -13.2010  -31.0050 C   0  0  0  0  0  0  0  0  0  0  0  0
  -28.9640  -11.8180  -31.0760 C   0  0  0  0  0  0  0  0  0  0  0  0
  -28.7200   -2.8130  -27.7860 C   0  0  0  0  0  0  0  0  0  0  0  0
  1  2  2  0
  1  6  1  0
  1  3  1  0
  2  4  1  0
  3 10  1  0
  4  5  2  0
  5  6  1  0
  6  7  1  0
  7  9  1  0
  7  8  2  0
 10 11  2  0
 10 12  1  0
 12 13  2  0
 12 15  1  0
 13 20  1  0
 13 14  1  0
 14 18  2  0
 14 17  1  0
 15 16  2  0
 16 17  1  0
 18 19  1  0
 19 20  2  0
  9 21  1  0
M  END
>  <name>  (664) 
Car Nac Nd0 Car Nac Nac Cs2 .=O Cs3 Cs2 .=O Car Car Car Car Car Nd0 Car Car Car Cs3

>  <indices>  (664) 
[0, 1, 2]

>  <tasks>  (664) 
probe_placing close_aromatic_ring close_aromatic_ring close_aromatic_ring ring_built build_to_Nac build_DB_to_Cs2 build_SB_to_Cs2 build_to_Nd0 build_DB_to_Cs2 build_SB_to_Cs2 close_aromatic_ring close_aromatic_ring close_aromatic_ring close_aromatic_ring close_aromatic_ring fix_Car close_aromatic_ring close_aromatic_ring

>  <prot_clashes>  (664) 
3

>  <NBS phar>  (664) 
0.12

>  <NBS_non-phar>  (664) 
0.43642852419898626

>  <NBS>  (664) 
0.5564285241989863

>  <source_stage>  (664) 
scored

>  <source_iter>  (664) 
18

>  <source_parent_mol>  (664) 
0

>  <source_scenario>  (664) 
1 2 3 1 7 1 0 7 1 1 5 2 0 0 0 3 1 0

>  <source_rank_in_scored_call>  (664) 
31

>  <source_current_task>  (664) 
no_task

>  <scenario>  (664) 
1 2 3 1 7 1 0 7 1 1 5 2 0 0 0 3 1

>  <protected_ring_attachments>  (664) 
3,1,0,2|1,0,2;4,5,0,2|5,0,2;11,12,13,17|12,13,17;15,16,13,17|16,13,17

>  <current_task>  (664) 
no_task

>  <rotatable_bond_torsions>  (664) 
1,0,2,9;0,2,9,11;0,5,6,8;2,9,11,12

$$$$

     RDKit          3D

 21 23  0  0  0  0  0  0  0  0999 V2000
  -28.4100   -6.6290  -30.7980 C   0  0  0  0  0  0  0  0  0  0  0  0
  -27.8400   -6.7140  -32.0340 N   0  0  0  0  0  0  0  0  0  0  0  0
  -28.7030   -7.8700  -30.0100 N   0  0  0  0  0  0  0  0  0  0  0  0
  -27.6540   -5.4700  -32.5070 C   0  0  0  0  0  0  0  0  0  0  0  0
  -28.1200   -4.6200  -31.5510 N   0  0  0  0  0  0  0  0  0  0  0  0
  -28.5710   -5.3180  -30.5260 N   0  0  0  0  0  0  0  0  0  0  0  0
  -29.0900   -4.7740  -29.3690 C   0  0  0  0  0  0  0  0  0  0  0  0
  -29.5600   -5.4160  -28.4410 O   0  0  0  0  0  0  0  0  0  0  0  0
  -28.9830   -3.2610  -29.0820 C   0  0  0  0  0  0  0  0  0  0  0  0
  -28.7890   -8.9910  -30.3990 C   0  0  0  0  0  0  0  0  0  0  0  0
  -28.5190   -9.4580  -31.5760 O   0  0  0  0  0  0  0  0  0  0  0  0
  -29.3280  -10.1460  -29.4750 C   0  0  0  0  0  0  0  0  0  0  0  0
  -29.2860  -11.3950  -30.0620 C   0  0  0  0  0  0  0  0  0  0  0  0
  -29.7200  -12.5190  -29.2320 C   0  0  0  0  0  0  0  0  0  0  0  0
  -29.7590   -9.9830  -28.1750 C   0  0  0  0  0  0  0  0  0  0  0  0
  -30.1590  -11.0820  -27.4360 C   0  0  0  0  0  0  0  0  0  0  0  0
  -30.1440  -12.3410  -27.9510 N   0  0  0  0  0  0  0  0  0  0  0  0
  -29.5850  -13.6440  -30.0420 C   0  0  0  0  0  0  0  0  0  0  0  0
  -29.1050  -13.2780  -31.2820 C   0  0  0  0  0  0  0  0  0  0  0  0
  -28.9180  -11.8910  -31.3020 C   0  0  0  0  0  0  0  0  0  0  0  0
  -27.7330   -2.9250  -28.2830 C   0  0  0  0  0  0  0  0  0  0  0  0
  1  2  2  0
  1  6  1  0
  1  3  1  0
  2  4  1  0
  3 10  1  0
  4  5  2  0
  5  6  1  0
  6  7  1  0
  7  9  1  0
  7  8  2  0
 10 11  2  0
 10 12  1  0
 12 13  2  0
 12 15  1  0
 13 20  1  0
 13 14  1  0
 14 18  2  0
 14 17  1  0
 15 16  2  0
 16 17  1  0
 18 19  1  0
 19 20  2  0
  9 21  1  0
M  END
>  <name>  (665) 
Car Nac Nd0 Car Nac Nac Cs2 .=O Cs3 Cs2 .=O Car Car Car Car Car Nd0 Car Car Car Cs3

>  <indices>  (665) 
[0, 1, 2]

>  <tasks>  (665) 
probe_placing close_aromatic_ring close_aromatic_ring close_aromatic_ring ring_built build_to_Nac build_DB_to_Cs2 build_SB_to_Cs2 build_to_Nd0 build_DB_to_Cs2 build_SB_to_Cs2 close_aromatic_ring close_aromatic_ring close_aromatic_ring close_aromatic_ring close_aromatic_ring fix_Car close_aromatic_ring close_aromatic_ring

>  <prot_clashes>  (665) 
4

>  <NBS phar>  (665) 
0.12

>  <NBS_non-phar>  (665) 
0.4186463128952753

>  <NBS>  (665) 
0.5386463128952753

>  <source_stage>  (665) 
scored

>  <source_iter>  (665) 
18

>  <source_parent_mol>  (665) 
0

>  <source_scenario>  (665) 
1 2 3 1 7 1 0 7 1 1 5 2 0 0 0 3 1 0

>  <source_rank_in_scored_call>  (665) 
35

>  <source_current_task>  (665) 
no_task

>  <scenario>  (665) 
1 2 3 1 7 1 0 7 1 1 5 2 0 0 0 3 1

>  <protected_ring_attachments>  (665) 
3,1,0,2|1,0,2;4,5,0,2|5,0,2;11,12,13,17|12,13,17;15,16,13,17|16,13,17

>  <current_task>  (665) 
no_task

>  <rotatable_bond_torsions>  (665) 
1,0,2,9;0,2,9,11;0,5,6,8;2,9,11,12

$$$$

     RDKit          3D

 21 23  0  0  0  0  0  0  0  0999 V2000
  -28.4120   -6.6320  -30.8000 C   0  0  0  0  0  0  0  0  0  0  0  0
  -27.8430   -6.7190  -32.0360 N   0  0  0  0  0  0  0  0  0  0  0  0
  -28.6990   -7.8720  -30.0070 N   0  0  0  0  0  0  0  0  0  0  0  0
  -27.6630   -5.4760  -32.5130 C   0  0  0  0  0  0  0  0  0  0  0  0
  -28.1300   -4.6250  -31.5590 N   0  0  0  0  0  0  0  0  0  0  0  0
  -28.5770   -5.3220  -30.5310 N   0  0  0  0  0  0  0  0  0  0  0  0
  -29.0970   -4.7760  -29.3750 C   0  0  0  0  0  0  0  0  0  0  0  0
  -29.5630   -5.4160  -28.4450 O   0  0  0  0  0  0  0  0  0  0  0  0
  -28.9940   -3.2610  -29.0930 C   0  0  0  0  0  0  0  0  0  0  0  0
  -28.7820   -8.9940  -30.3930 C   0  0  0  0  0  0  0  0  0  0  0  0
  -28.5120   -9.4640  -31.5690 O   0  0  0  0  0  0  0  0  0  0  0  0
  -29.3160  -10.1480  -29.4650 C   0  0  0  0  0  0  0  0  0  0  0  0
  -29.2700  -11.3990  -30.0490 C   0  0  0  0  0  0  0  0  0  0  0  0
  -29.7000  -12.5230  -29.2150 C   0  0  0  0  0  0  0  0  0  0  0  0
  -29.7460   -9.9830  -28.1650 C   0  0  0  0  0  0  0  0  0  0  0  0
  -30.1420  -11.0810  -27.4220 C   0  0  0  0  0  0  0  0  0  0  0  0
  -30.1230  -12.3420  -27.9330 N   0  0  0  0  0  0  0  0  0  0  0  0
  -29.5620  -13.6490  -30.0210 C   0  0  0  0  0  0  0  0  0  0  0  0
  -29.0850  -13.2850  -31.2630 C   0  0  0  0  0  0  0  0  0  0  0  0
  -28.9020  -11.8970  -31.2870 C   0  0  0  0  0  0  0  0  0  0  0  0
  -30.6080  -10.8740  -26.0030 C   0  0  0  0  0  0  0  0  0  0  0  0
  1  2  2  0
  1  6  1  0
  1  3  1  0
  2  4  1  0
  3 10  1  0
  4  5  2  0
  5  6  1  0
  6  7  1  0
  7  9  1  0
  7  8  2  0
 10 11  2  0
 10 12  1  0
 12 13  2  0
 12 15  1  0
 13 20  1  0
 13 14  1  0
 14 18  2  0
 14 17  1  0
 15 16  2  0
 16 17  1  0
 16 21  1  0
 18 19  1  0
 19 20  2  0
M  END
>  <name>  (666) 
Car Nac Nd0 Car Nac Nac Cs2 .=O Cs3 Cs2 .=O Car Car Car Car Car Nd0 Car Car Car Cs3

>  <indices>  (666) 
[0, 1, 2]

>  <tasks>  (666) 
probe_placing close_aromatic_ring close_aromatic_ring close_aromatic_ring ring_built build_to_Nac build_DB_to_Cs2 build_SB_to_Cs2 build_to_Nd0 build_DB_to_Cs2 build_SB_to_Cs2 close_aromatic_ring close_aromatic_ring close_aromatic_ring close_aromatic_ring close_aromatic_ring fix_Car close_aromatic_ring close_aromatic_ring

>  <prot_clashes>  (666) 
3

>  <NBS phar>  (666) 
0.12

>  <NBS_non-phar>  (666) 
0.406723522004627

>  <NBS>  (666) 
0.526723522004627

>  <source_stage>  (666) 
scored

>  <source_iter>  (666) 
18

>  <source_parent_mol>  (666) 
0

>  <source_scenario>  (666) 
1 2 3 1 7 1 0 7 1 1 5 2 0 0 0 3 1 0

>  <source_rank_in_scored_call>  (666) 
38

>  <source_current_task>  (666) 
no_task

>  <scenario>  (666) 
1 2 3 1 7 1 0 7 1 1 5 2 0 0 0 3 1

>  <protected_ring_attachments>  (666) 
3,1,0,2|1,0,2;4,5,0,2|5,0,2;11,12,13,17|12,13,17;15,16,13,17|16,13,17

>  <current_task>  (666) 
no_task

>  <rotatable_bond_torsions>  (666) 
1,0,2,9;0,2,9,11;0,5,6,8;2,9,11,12

$$$$

     RDKit          3D

 21 23  0  0  0  0  0  0  0  0999 V2000
  -28.1480   -6.3300  -30.8320 C   0  0  0  0  0  0  0  0  0  0  0  0
  -27.5520   -6.3710  -32.0580 N   0  0  0  0  0  0  0  0  0  0  0  0
  -28.4760   -7.5990  -30.1040 N   0  0  0  0  0  0  0  0  0  0  0  0
  -27.3380   -5.1110  -32.4730 C   0  0  0  0  0  0  0  0  0  0  0  0
  -27.8120   -4.2960  -31.4900 N   0  0  0  0  0  0  0  0  0  0  0  0
  -28.2950   -5.0300  -30.5070 N   0  0  0  0  0  0  0  0  0  0  0  0
  -28.8320   -4.5280  -29.3380 C   0  0  0  0  0  0  0  0  0  0  0  0
  -29.3310   -5.2020  -28.4490 O   0  0  0  0  0  0  0  0  0  0  0  0
  -28.7090   -3.0300  -28.9840 C   0  0  0  0  0  0  0  0  0  0  0  0
  -28.5690   -8.7010  -30.5430 C   0  0  0  0  0  0  0  0  0  0  0  0
  -28.2810   -9.1220  -31.7320 O   0  0  0  0  0  0  0  0  0  0  0  0
  -29.1450   -9.8860  -29.6810 C   0  0  0  0  0  0  0  0  0  0  0  0
  -29.1080  -11.1090  -30.3210 C   0  0  0  0  0  0  0  0  0  0  0  0
  -29.5770  -12.2610  -29.5490 C   0  0  0  0  0  0  0  0  0  0  0  0
  -29.6020   -9.7720  -28.3850 C   0  0  0  0  0  0  0  0  0  0  0  0
  -30.0350  -10.8960  -27.7020 C   0  0  0  0  0  0  0  0  0  0  0  0
  -30.0270  -12.1320  -28.2710 N   0  0  0  0  0  0  0  0  0  0  0  0
  -29.4410  -13.3520  -30.4030 C   0  0  0  0  0  0  0  0  0  0  0  0
  -28.9290  -12.9410  -31.6170 C   0  0  0  0  0  0  0  0  0  0  0  0
  -28.7210  -11.5570  -31.5720 C   0  0  0  0  0  0  0  0  0  0  0  0
  -29.5490   -2.1240  -29.9380 C   0  0  0  0  0  0  0  0  0  0  0  0
  1  2  2  0
  1  6  1  0
  1  3  1  0
  2  4  1  0
  3 10  1  0
  4  5  2  0
  5  6  1  0
  6  7  1  0
  7  9  1  0
  7  8  2  0
 10 11  2  0
 10 12  1  0
 12 13  2  0
 12 15  1  0
 13 20  1  0
 13 14  1  0
 14 18  2  0
 14 17  1  0
 15 16  2  0
 16 17  1  0
 18 19  1  0
 19 20  2  0
  9 21  1  0
M  END
>  <name>  (667) 
Car Nac Nd0 Car Nac Nac Cs2 .=O Cs3 Cs2 .=O Car Car Car Car Car Nd0 Car Car Car Cs3

>  <indices>  (667) 
[0, 1, 2]

>  <tasks>  (667) 
probe_placing close_aromatic_ring close_aromatic_ring close_aromatic_ring ring_built build_to_Nac build_DB_to_Cs2 build_SB_to_Cs2 build_to_Nd0 build_DB_to_Cs2 build_SB_to_Cs2 close_aromatic_ring close_aromatic_ring close_aromatic_ring close_aromatic_ring close_aromatic_ring fix_Car close_aromatic_ring close_aromatic_ring

>  <prot_clashes>  (667) 
4

>  <NBS phar>  (667) 
0.12

>  <NBS_non-phar>  (667) 
0.3913471131097703

>  <NBS>  (667) 
0.5113471131097702

>  <source_stage>  (667) 
scored

>  <source_iter>  (667) 
18

>  <source_parent_mol>  (667) 
0

>  <source_scenario>  (667) 
1 2 3 1 7 1 0 7 1 1 5 2 0 0 0 3 1 0

>  <source_rank_in_scored_call>  (667) 
44

>  <source_current_task>  (667) 
no_task

>  <scenario>  (667) 
1 2 3 1 7 1 0 7 1 1 5 2 0 0 0 3 1

>  <protected_ring_attachments>  (667) 
3,1,0,2|1,0,2;4,5,0,2|5,0,2;11,12,13,17|12,13,17;15,16,13,17|16,13,17

>  <current_task>  (667) 
no_task

>  <rotatable_bond_torsions>  (667) 
1,0,2,9;0,2,9,11;0,5,6,8;2,9,11,12

$$$$

     RDKit          3D

 17 18  0  0  0  0  0  0  0  0999 V2000
  -28.4610   -6.6440  -30.8420 C   0  0  0  0  0  0  0  0  0  0  0  0
  -27.9320   -6.7000  -32.0990 N   0  0  0  0  0  0  0  0  0  0  0  0
  -28.8070   -7.9060  -30.1080 N   0  0  0  0  0  0  0  0  0  0  0  0
  -27.6830   -5.4450  -32.5130 C   0  0  0  0  0  0  0  0  0  0  0  0
  -28.0650   -4.6190  -31.4990 N   0  0  0  0  0  0  0  0  0  0  0  0
  -28.5290   -5.3440  -30.4980 N   0  0  0  0  0  0  0  0  0  0  0  0
  -28.9790   -4.8300  -29.2980 C   0  0  0  0  0  0  0  0  0  0  0  0
  -29.4610   -5.4900  -28.3890 O   0  0  0  0  0  0  0  0  0  0  0  0
  -28.7670   -3.3430  -28.9390 C   0  0  0  0  0  0  0  0  0  0  0  0
  -28.9760   -8.9970  -30.5530 C   0  0  0  0  0  0  0  0  0  0  0  0
  -28.7710   -9.4160  -31.7590 O   0  0  0  0  0  0  0  0  0  0  0  0
  -29.5640  -10.1790  -29.6330 C   0  0  0  0  0  0  0  0  0  0  0  0
  -29.9480  -10.0270  -28.3170 C   0  0  0  0  0  0  0  0  0  0  0  0
  -30.4050  -11.1630  -27.6520 C   0  0  0  0  0  0  0  0  0  0  0  0
  -30.4650  -12.3750  -28.2850 C   0  0  0  0  0  0  0  0  0  0  0  0
  -29.6080  -11.3710  -30.3050 C   0  0  0  0  0  0  0  0  0  0  0  0
  -30.0670  -12.4810  -29.6130 C   0  0  0  0  0  0  0  0  0  0  0  0
  1  2  2  0
  1  6  1  0
  1  3  1  0
  2  4  1  0
  3 10  1  0
  4  5  2  0
  5  6  1  0
  6  7  1  0
  7  9  1  0
  7  8  2  0
 10 11  2  0
 10 12  1  0
 12 16  1  0
 12 13  2  0
 13 14  1  0
 14 15  2  0
 15 17  1  0
 16 17  2  0
M  END
>  <name>  (668) 
Car Nac Nd0 Car Nac Nac Cs2 .=O Cs3 Cs2 .=O Car Car Car Car Car Car

>  <indices>  (668) 
[0, 1, 2]

>  <tasks>  (668) 
probe_placing close_aromatic_ring close_aromatic_ring close_aromatic_ring ring_built build_to_Nac build_DB_to_Cs2 build_SB_to_Cs2 build_to_Nd0 build_DB_to_Cs2 build_SB_to_Cs2 close_aromatic_ring close_aromatic_ring close_aromatic_ring close_aromatic_ring

>  <prot_clashes>  (668) 
2

>  <NBS phar>  (668) 
0.2

>  <NBS_non-phar>  (668) 
0.38897564831902

>  <NBS>  (668) 
0.58897564831902

>  <source_stage>  (668) 
scored

>  <source_iter>  (668) 
14

>  <source_parent_mol>  (668) 
0

>  <source_scenario>  (668) 
1 2 3 1 7 1 0 7 1 1 5 2 2 0

>  <source_rank_in_scored_call>  (668) 
0

>  <source_current_task>  (668) 
close_aromatic_ring

>  <scenario>  (668) 
1 2 3 1 7 1 0 7 1 1 5 2 2

>  <protected_ring_attachments>  (668) 
3,1,0,2|1,0,2;4,5,0,2|5,0,2

>  <current_task>  (668) 
no_task

>  <rotatable_bond_torsions>  (668) 
1,0,2,9;0,2,9,11;0,5,6,8;2,9,11,12;11,12,13,14

$$$$

     RDKit          3D

 17 18  0  0  0  0  0  0  0  0999 V2000
  -28.4560   -6.6420  -30.8420 C   0  0  0  0  0  0  0  0  0  0  0  0
  -27.9280   -6.6950  -32.1000 N   0  0  0  0  0  0  0  0  0  0  0  0
  -28.7990   -7.9050  -30.1100 N   0  0  0  0  0  0  0  0  0  0  0  0
  -27.6810   -5.4390  -32.5130 C   0  0  0  0  0  0  0  0  0  0  0  0
  -28.0650   -4.6150  -31.4980 N   0  0  0  0  0  0  0  0  0  0  0  0
  -28.5270   -5.3430  -30.4970 N   0  0  0  0  0  0  0  0  0  0  0  0
  -28.9780   -4.8310  -29.2970 C   0  0  0  0  0  0  0  0  0  0  0  0
  -29.4570   -5.4920  -28.3890 O   0  0  0  0  0  0  0  0  0  0  0  0
  -28.7690   -3.3430  -28.9350 C   0  0  0  0  0  0  0  0  0  0  0  0
  -28.9660   -8.9960  -30.5550 C   0  0  0  0  0  0  0  0  0  0  0  0
  -28.7610   -9.4130  -31.7620 O   0  0  0  0  0  0  0  0  0  0  0  0
  -29.5650  -10.2110  -29.6240 C   0  0  0  0  0  0  0  0  0  0  0  0
  -29.9620  -10.0480  -28.3060 C   0  0  0  0  0  0  0  0  0  0  0  0
  -30.3950  -11.1610  -27.6250 C   0  0  0  0  0  0  0  0  0  0  0  0
  -30.4540  -12.4220  -28.1840 C   0  0  0  0  0  0  0  0  0  0  0  0
  -29.6170  -11.4570  -30.2000 C   0  0  0  0  0  0  0  0  0  0  0  0
  -30.0540  -12.5840  -29.5140 C   0  0  0  0  0  0  0  0  0  0  0  0
  1  2  2  0
  1  6  1  0
  1  3  1  0
  2  4  1  0
  3 10  1  0
  4  5  2  0
  5  6  1  0
  6  7  1  0
  7  9  1  0
  7  8  2  0
 10 11  2  0
 10 12  1  0
 12 16  1  0
 12 13  2  0
 13 14  1  0
 14 15  2  0
 15 17  1  0
 16 17  2  0
M  END
>  <name>  (669) 
Car Nac Nd0 Car Nac Nac Cs2 .=O Cs3 Cs2 .=O Car Car Car Car Car Car

>  <indices>  (669) 
[0, 1, 2]

>  <tasks>  (669) 
probe_placing close_aromatic_ring close_aromatic_ring close_aromatic_ring ring_built build_to_Nac build_DB_to_Cs2 build_SB_to_Cs2 build_to_Nd0 build_DB_to_Cs2 build_SB_to_Cs2 close_aromatic_ring close_aromatic_ring close_aromatic_ring close_aromatic_ring

>  <prot_clashes>  (669) 
2

>  <NBS phar>  (669) 
0.22000000000000003

>  <NBS_non-phar>  (669) 
0.38341569900512695

>  <NBS>  (669) 
0.6034156990051269

>  <source_stage>  (669) 
scored

>  <source_iter>  (669) 
14

>  <source_parent_mol>  (669) 
1

>  <source_scenario>  (669) 
1 2 3 1 7 1 0 7 1 1 5 2 2 1

>  <source_rank_in_scored_call>  (669) 
0

>  <source_current_task>  (669) 
close_aromatic_ring

>  <scenario>  (669) 
1 2 3 1 7 1 0 7 1 1 5 2 2

>  <protected_ring_attachments>  (669) 
3,1,0,2|1,0,2;4,5,0,2|5,0,2

>  <current_task>  (669) 
no_task

>  <rotatable_bond_torsions>  (669) 
1,0,2,9;0,2,9,11;0,5,6,8;2,9,11,12;11,12,13,14

$$$$

     RDKit          3D

 17 18  0  0  0  0  0  0  0  0999 V2000
  -28.4620   -6.6520  -30.8490 C   0  0  0  0  0  0  0  0  0  0  0  0
  -27.9310   -6.6960  -32.1060 N   0  0  0  0  0  0  0  0  0  0  0  0
  -28.8070   -7.9200  -30.1260 N   0  0  0  0  0  0  0  0  0  0  0  0
  -27.6840   -5.4370  -32.5100 C   0  0  0  0  0  0  0  0  0  0  0  0
  -28.0690   -4.6200  -31.4910 N   0  0  0  0  0  0  0  0  0  0  0  0
  -28.5330   -5.3540  -30.4950 N   0  0  0  0  0  0  0  0  0  0  0  0
  -28.9870   -4.8500  -29.2930 C   0  0  0  0  0  0  0  0  0  0  0  0
  -29.4690   -5.5180  -28.3900 O   0  0  0  0  0  0  0  0  0  0  0  0
  -28.7780   -3.3660  -28.9200 C   0  0  0  0  0  0  0  0  0  0  0  0
  -28.9740   -9.0070  -30.5790 C   0  0  0  0  0  0  0  0  0  0  0  0
  -28.7660   -9.4160  -31.7880 O   0  0  0  0  0  0  0  0  0  0  0  0
  -29.5640  -10.1320  -29.6440 C   0  0  0  0  0  0  0  0  0  0  0  0
  -30.1220  -10.0400  -28.3840 C   0  0  0  0  0  0  0  0  0  0  0  0
  -30.4290  -11.1560  -27.6260 C   0  0  0  0  0  0  0  0  0  0  0  0
  -30.1670  -12.4070  -28.1460 C   0  0  0  0  0  0  0  0  0  0  0  0
  -29.3080  -11.3860  -30.1530 C   0  0  0  0  0  0  0  0  0  0  0  0
  -29.6020  -12.5160  -29.4190 C   0  0  0  0  0  0  0  0  0  0  0  0
  1  2  2  0
  1  6  1  0
  1  3  1  0
  2  4  1  0
  3 10  1  0
  4  5  2  0
  5  6  1  0
  6  7  1  0
  7  9  1  0
  7  8  2  0
 10 11  2  0
 10 12  1  0
 12 16  1  0
 12 13  2  0
 13 14  1  0
 14 15  2  0
 15 17  1  0
 16 17  2  0
M  END
>  <name>  (670) 
Car Nac Nd0 Car Nac Nac Cs2 .=O Cs3 Cs2 .=O Car Car Car Car Car Car

>  <indices>  (670) 
[0, 1, 2]

>  <tasks>  (670) 
probe_placing close_aromatic_ring close_aromatic_ring close_aromatic_ring ring_built build_to_Nac build_DB_to_Cs2 build_SB_to_Cs2 build_to_Nd0 build_DB_to_Cs2 build_SB_to_Cs2 close_aromatic_ring close_aromatic_ring close_aromatic_ring close_aromatic_ring

>  <prot_clashes>  (670) 
2

>  <NBS phar>  (670) 
0.22000000000000003

>  <NBS_non-phar>  (670) 
0.3604902940637925

>  <NBS>  (670) 
0.5804902940637926

>  <source_stage>  (670) 
scored

>  <source_iter>  (670) 
14

>  <source_parent_mol>  (670) 
1

>  <source_scenario>  (670) 
1 2 3 1 7 1 0 7 1 1 5 2 2 1

>  <source_rank_in_scored_call>  (670) 
1

>  <source_current_task>  (670) 
close_aromatic_ring

>  <scenario>  (670) 
1 2 3 1 7 1 0 7 1 1 5 2 2

>  <protected_ring_attachments>  (670) 
3,1,0,2|1,0,2;4,5,0,2|5,0,2

>  <current_task>  (670) 
no_task

>  <rotatable_bond_torsions>  (670) 
1,0,2,9;0,2,9,11;0,5,6,8;2,9,11,12;11,12,13,14

$$$$

     RDKit          3D

 17 18  0  0  0  0  0  0  0  0999 V2000
  -28.4680   -6.6480  -30.8480 C   0  0  0  0  0  0  0  0  0  0  0  0
  -27.9410   -6.6990  -32.1060 N   0  0  0  0  0  0  0  0  0  0  0  0
  -28.8200   -7.9130  -30.1200 N   0  0  0  0  0  0  0  0  0  0  0  0
  -27.6870   -5.4430  -32.5130 C   0  0  0  0  0  0  0  0  0  0  0  0
  -28.0650   -4.6210  -31.4940 N   0  0  0  0  0  0  0  0  0  0  0  0
  -28.5310   -5.3490  -30.4960 N   0  0  0  0  0  0  0  0  0  0  0  0
  -28.9790   -4.8410  -29.2940 C   0  0  0  0  0  0  0  0  0  0  0  0
  -29.4630   -5.5030  -28.3880 O   0  0  0  0  0  0  0  0  0  0  0  0
  -28.7600   -3.3560  -28.9260 C   0  0  0  0  0  0  0  0  0  0  0  0
  -28.9940   -9.0010  -30.5710 C   0  0  0  0  0  0  0  0  0  0  0  0
  -28.7910   -9.4140  -31.7790 O   0  0  0  0  0  0  0  0  0  0  0  0
  -29.5660  -10.2400  -29.6330 C   0  0  0  0  0  0  0  0  0  0  0  0
  -30.0030  -10.0780  -28.3140 C   0  0  0  0  0  0  0  0  0  0  0  0
  -30.4700  -11.1670  -27.6060 C   0  0  0  0  0  0  0  0  0  0  0  0
  -30.5020  -12.4140  -28.2080 C   0  0  0  0  0  0  0  0  0  0  0  0
  -30.0640  -12.5470  -29.5100 C   0  0  0  0  0  0  0  0  0  0  0  0
  -29.5920  -11.4770  -30.2440 C   0  0  0  0  0  0  0  0  0  0  0  0
  1  2  2  0
  1  6  1  0
  1  3  1  0
  2  4  1  0
  3 10  1  0
  4  5  2  0
  5  6  1  0
  6  7  1  0
  7  9  1  0
  7  8  2  0
 10 11  2  0
 10 12  1  0
 12 17  1  0
 12 13  2  0
 13 14  1  0
 14 15  2  0
 15 16  1  0
 16 17  2  0
M  END
>  <name>  (671) 
Car Nac Nd0 Car Nac Nac Cs2 .=O Cs3 Cs2 .=O Car Car Car Car Car Car

>  <indices>  (671) 
[0, 1, 2]

>  <tasks>  (671) 
probe_placing close_aromatic_ring close_aromatic_ring close_aromatic_ring ring_built build_to_Nac build_DB_to_Cs2 build_SB_to_Cs2 build_to_Nd0 build_DB_to_Cs2 build_SB_to_Cs2 close_aromatic_ring close_aromatic_ring close_aromatic_ring close_aromatic_ring

>  <prot_clashes>  (671) 
2

>  <NBS phar>  (671) 
0.22000000000000003

>  <NBS_non-phar>  (671) 
0.3868325738345875

>  <NBS>  (671) 
0.6068325738345876

>  <source_stage>  (671) 
scored

>  <source_iter>  (671) 
14

>  <source_parent_mol>  (671) 
3

>  <source_scenario>  (671) 
1 2 3 1 7 1 0 7 1 1 5 2 2 3

>  <source_rank_in_scored_call>  (671) 
0

>  <source_current_task>  (671) 
close_aromatic_ring

>  <scenario>  (671) 
1 2 3 1 7 1 0 7 1 1 5 2 2

>  <protected_ring_attachments>  (671) 
3,1,0,2|1,0,2;4,5,0,2|5,0,2

>  <current_task>  (671) 
no_task

>  <rotatable_bond_torsions>  (671) 
1,0,2,9;0,2,9,11;0,5,6,8;2,9,11,12;11,12,13,14

$$$$

     RDKit          3D

 17 18  0  0  0  0  0  0  0  0999 V2000
  -28.4600   -6.6500  -30.8370 C   0  0  0  0  0  0  0  0  0  0  0  0
  -27.9320   -6.7110  -32.0940 N   0  0  0  0  0  0  0  0  0  0  0  0
  -28.8050   -7.9100  -30.0970 N   0  0  0  0  0  0  0  0  0  0  0  0
  -27.6840   -5.4580  -32.5130 C   0  0  0  0  0  0  0  0  0  0  0  0
  -28.0660   -4.6280  -31.5020 N   0  0  0  0  0  0  0  0  0  0  0  0
  -28.5290   -5.3490  -30.4980 N   0  0  0  0  0  0  0  0  0  0  0  0
  -28.9790   -4.8320  -29.3010 C   0  0  0  0  0  0  0  0  0  0  0  0
  -29.4600   -5.4880  -28.3880 O   0  0  0  0  0  0  0  0  0  0  0  0
  -28.7680   -3.3420  -28.9460 C   0  0  0  0  0  0  0  0  0  0  0  0
  -28.9740   -9.0030  -30.5380 C   0  0  0  0  0  0  0  0  0  0  0  0
  -28.7690   -9.4270  -31.7420 O   0  0  0  0  0  0  0  0  0  0  0  0
  -29.7850  -10.1510  -29.6080 C   0  0  0  0  0  0  0  0  0  0  0  0
  -29.9740  -10.0450  -28.2440 C   0  0  0  0  0  0  0  0  0  0  0  0
  -30.3140  -11.1660  -27.5000 C   0  0  0  0  0  0  0  0  0  0  0  0
  -30.4610  -12.3950  -28.1510 C   0  0  0  0  0  0  0  0  0  0  0  0
  -30.2680  -12.4810  -29.5140 C   0  0  0  0  0  0  0  0  0  0  0  0
  -29.9300  -11.3650  -30.2500 C   0  0  0  0  0  0  0  0  0  0  0  0
  1  2  2  0
  1  6  1  0
  1  3  1  0
  2  4  1  0
  3 10  1  0
  4  5  2  0
  5  6  1  0
  6  7  1  0
  7  9  1  0
  7  8  2  0
 10 11  2  0
 10 12  1  0
 12 17  1  0
 12 13  2  0
 13 14  1  0
 14 15  2  0
 15 16  1  0
 16 17  2  0
M  END
>  <name>  (672) 
Car Nac Nd0 Car Nac Nac Cs2 .=O Cs3 Cs2 .=O Car Car Car Car Car Car

>  <indices>  (672) 
[0, 1, 2]

>  <tasks>  (672) 
probe_placing close_aromatic_ring close_aromatic_ring close_aromatic_ring ring_built build_to_Nac build_DB_to_Cs2 build_SB_to_Cs2 build_to_Nd0 build_DB_to_Cs2 build_SB_to_Cs2 close_aromatic_ring close_aromatic_ring close_aromatic_ring close_aromatic_ring

>  <prot_clashes>  (672) 
3

>  <NBS phar>  (672) 
0.2

>  <NBS_non-phar>  (672) 
0.3617006189682904

>  <NBS>  (672) 
0.5617006189682905

>  <source_stage>  (672) 
scored

>  <source_iter>  (672) 
14

>  <source_parent_mol>  (672) 
3

>  <source_scenario>  (672) 
1 2 3 1 7 1 0 7 1 1 5 2 2 3

>  <source_rank_in_scored_call>  (672) 
1

>  <source_current_task>  (672) 
close_aromatic_ring

>  <scenario>  (672) 
1 2 3 1 7 1 0 7 1 1 5 2 2

>  <protected_ring_attachments>  (672) 
3,1,0,2|1,0,2;4,5,0,2|5,0,2

>  <current_task>  (672) 
no_task

>  <rotatable_bond_torsions>  (672) 
1,0,2,9;0,2,9,11;0,5,6,8;2,9,11,12;11,12,13,14

$$$$

     RDKit          3D

 20 22  0  0  0  0  0  0  0  0999 V2000
  -28.4620   -6.6480  -30.8420 C   0  0  0  0  0  0  0  0  0  0  0  0
  -27.9300   -6.7080  -32.0980 N   0  0  0  0  0  0  0  0  0  0  0  0
  -28.8120   -7.9080  -30.1050 N   0  0  0  0  0  0  0  0  0  0  0  0
  -27.6800   -5.4550  -32.5130 C   0  0  0  0  0  0  0  0  0  0  0  0
  -28.0640   -4.6250  -31.5030 N   0  0  0  0  0  0  0  0  0  0  0  0
  -28.5300   -5.3480  -30.5010 N   0  0  0  0  0  0  0  0  0  0  0  0
  -28.9830   -4.8290  -29.3040 C   0  0  0  0  0  0  0  0  0  0  0  0
  -29.4680   -5.4860  -28.3940 O   0  0  0  0  0  0  0  0  0  0  0  0
  -28.7720   -3.3410  -28.9470 C   0  0  0  0  0  0  0  0  0  0  0  0
  -28.9810   -9.0000  -30.5480 C   0  0  0  0  0  0  0  0  0  0  0  0
  -28.7730   -9.4210  -31.7530 O   0  0  0  0  0  0  0  0  0  0  0  0
  -29.5480  -10.2760  -29.6150 C   0  0  0  0  0  0  0  0  0  0  0  0
  -29.9860  -10.0590  -28.3040 C   0  0  0  0  0  0  0  0  0  0  0  0
  -30.4410  -11.1760  -27.6310 C   0  0  0  0  0  0  0  0  0  0  0  0
  -30.4770  -12.4320  -28.1760 C   0  0  0  0  0  0  0  0  0  0  0  0
  -30.0050  -12.5920  -29.5510 C   0  0  0  0  0  0  0  0  0  0  0  0
  -29.5710  -11.4990  -30.1790 N   0  0  0  0  0  0  0  0  0  0  0  0
  -30.1330  -13.9380  -29.8880 C   0  0  0  0  0  0  0  0  0  0  0  0
  -30.6580  -14.5880  -28.7870 C   0  0  0  0  0  0  0  0  0  0  0  0
  -30.8620  -13.6670  -27.7550 C   0  0  0  0  0  0  0  0  0  0  0  0
  1  2  2  0
  1  6  1  0
  1  3  1  0
  2  4  1  0
  3 10  1  0
  4  5  2  0
  5  6  1  0
  6  7  1  0
  7  9  1  0
  7  8  2  0
 10 11  2  0
 10 12  1  0
 12 17  1  0
 12 13  2  0
 13 14  1  0
 14 15  2  0
 15 16  1  0
 15 20  1  0
 16 17  1  0
 16 18  2  0
 18 19  1  0
 19 20  2  0
M  END
>  <name>  (673) 
Car Nac Nd0 Car Nac Nac Cs2 .=O Cs3 Cs2 .=O Car Car Car Car Car Nd0 Car Car Car

>  <indices>  (673) 
[0, 1, 2]

>  <tasks>  (673) 
probe_placing close_aromatic_ring close_aromatic_ring close_aromatic_ring ring_built build_to_Nac build_DB_to_Cs2 build_SB_to_Cs2 build_to_Nd0 build_DB_to_Cs2 build_SB_to_Cs2 close_aromatic_ring close_aromatic_ring close_aromatic_ring close_aromatic_ring close_aromatic_ring fix_Car close_aromatic_ring

>  <prot_clashes>  (673) 
3

>  <NBS phar>  (673) 
0.2

>  <NBS_non-phar>  (673) 
0.3348567962646484

>  <NBS>  (673) 
0.5348567962646484

>  <source_stage>  (673) 
scored

>  <source_iter>  (673) 
17

>  <source_parent_mol>  (673) 
0

>  <source_scenario>  (673) 
1 2 3 1 7 1 0 7 1 1 5 2 2 3 0 3 0

>  <source_rank_in_scored_call>  (673) 
2

>  <source_current_task>  (673) 
close_aromatic_ring

>  <scenario>  (673) 
1 2 3 1 7 1 0 7 1 1 5 2 2 3 0 3

>  <protected_ring_attachments>  (673) 
3,1,0,2|1,0,2;4,5,0,2|5,0,2;11,16,15,17|16,15,17;13,14,15,17|14,15,17

>  <current_task>  (673) 
no_task

>  <rotatable_bond_torsions>  (673) 
1,0,2,9;0,2,9,11;0,5,6,8;2,9,11,12

$$$$

     RDKit          3D

 17 18  0  0  0  0  0  0  0  0999 V2000
  -28.4160   -6.7580  -30.8790 C   0  0  0  0  0  0  0  0  0  0  0  0
  -27.9000   -6.7560  -32.1420 N   0  0  0  0  0  0  0  0  0  0  0  0
  -28.7260   -8.0520  -30.1870 N   0  0  0  0  0  0  0  0  0  0  0  0
  -27.6820   -5.4830  -32.5130 C   0  0  0  0  0  0  0  0  0  0  0  0
  -28.0730   -4.7020  -31.4660 N   0  0  0  0  0  0  0  0  0  0  0  0
  -28.5120   -5.4720  -30.4880 N   0  0  0  0  0  0  0  0  0  0  0  0
  -28.9590   -5.0110  -29.2680 C   0  0  0  0  0  0  0  0  0  0  0  0
  -29.4160   -5.7130  -28.3790 O   0  0  0  0  0  0  0  0  0  0  0  0
  -28.7760   -3.5340  -28.8560 C   0  0  0  0  0  0  0  0  0  0  0  0
  -28.8770   -9.1310  -30.6690 C   0  0  0  0  0  0  0  0  0  0  0  0
  -28.6760   -9.5010  -31.8900 O   0  0  0  0  0  0  0  0  0  0  0  0
  -29.5630  -10.3330  -29.8800 C   0  0  0  0  0  0  0  0  0  0  0  0
  -30.3070  -10.0880  -28.7610 C   0  0  0  0  0  0  0  0  0  0  0  0
  -30.6050  -11.1350  -27.9060 C   0  0  0  0  0  0  0  0  0  0  0  0
  -30.1850  -12.4300  -28.1280 C   0  0  0  0  0  0  0  0  0  0  0  0
  -29.4300  -12.6770  -29.2640 C   0  0  0  0  0  0  0  0  0  0  0  0
  -29.1300  -11.6350  -30.1190 C   0  0  0  0  0  0  0  0  0  0  0  0
  1  2  2  0
  1  6  1  0
  1  3  1  0
  2  4  1  0
  3 10  1  0
  4  5  2  0
  5  6  1  0
  6  7  1  0
  7  9  1  0
  7  8  2  0
 10 11  2  0
 10 12  1  0
 12 17  1  0
 12 13  2  0
 13 14  1  0
 14 15  2  0
 15 16  1  0
 16 17  2  0
M  END
>  <name>  (674) 
Car Nac Nd0 Car Nac Nac Cs2 .=O Cs3 Cs2 .=O Car Car Car Car Car Car

>  <indices>  (674) 
[0, 1, 2]

>  <tasks>  (674) 
probe_placing close_aromatic_ring close_aromatic_ring close_aromatic_ring ring_built build_to_Nac build_DB_to_Cs2 build_SB_to_Cs2 build_to_Nd0 build_DB_to_Cs2 build_SB_to_Cs2 close_aromatic_ring close_aromatic_ring close_aromatic_ring close_aromatic_ring

>  <prot_clashes>  (674) 
3

>  <NBS phar>  (674) 
0.2

>  <NBS_non-phar>  (674) 
0.3514973416047938

>  <NBS>  (674) 
0.5514973416047938

>  <source_stage>  (674) 
scored

>  <source_iter>  (674) 
14

>  <source_parent_mol>  (674) 
1

>  <source_scenario>  (674) 
1 2 3 1 7 1 0 7 1 1 6 2 1 1

>  <source_rank_in_scored_call>  (674) 
0

>  <source_current_task>  (674) 
close_aromatic_ring

>  <scenario>  (674) 
1 2 3 1 7 1 0 7 1 1 6 2 1

>  <protected_ring_attachments>  (674) 
3,1,0,2|1,0,2;4,5,0,2|5,0,2

>  <current_task>  (674) 
no_task

>  <rotatable_bond_torsions>  (674) 
1,0,2,9;0,2,9,11;0,5,6,8;2,9,11,12;9,11,12,13;12,13,14,15

$$$$

     RDKit          3D

 14 15  0  0  0  0  0  0  0  0999 V2000
  -28.5030   -6.4960  -30.9380 C   0  0  0  0  0  0  0  0  0  0  0  0
  -27.8740   -6.6060  -32.1450 N   0  0  0  0  0  0  0  0  0  0  0  0
  -29.0630   -7.7110  -30.2580 N   0  0  0  0  0  0  0  0  0  0  0  0
  -27.4400   -5.3880  -32.5130 C   0  0  0  0  0  0  0  0  0  0  0  0
  -27.8090   -4.5290  -31.5210 N   0  0  0  0  0  0  0  0  0  0  0  0
  -28.4450   -5.1970  -30.5780 N   0  0  0  0  0  0  0  0  0  0  0  0
  -28.9330   -4.6430  -29.4130 C   0  0  0  0  0  0  0  0  0  0  0  0
  -29.5690   -5.2440  -28.5630 O   0  0  0  0  0  0  0  0  0  0  0  0
  -28.5750   -3.1950  -29.0120 C   0  0  0  0  0  0  0  0  0  0  0  0
  -28.6720   -8.5640  -29.1600 C   0  0  2  0  0  0  0  0  0  0  0  0
  -28.0840   -7.7790  -28.0030 C   0  0  0  0  0  0  0  0  0  0  0  0
  -28.0350   -8.8590  -26.9310 C   0  0  0  0  0  0  0  0  0  0  0  0
  -27.3120   -9.9550  -27.7030 C   0  0  0  0  0  0  0  0  0  0  0  0
  -28.0870   -9.9530  -29.0120 C   0  0  0  0  0  0  0  0  0  0  0  0
  1  2  2  0
  1  6  1  0
  1  3  1  0
  2  4  1  0
 10  3  1  6
  4  5  2  0
  5  6  1  0
  6  7  1  0
  7  9  1  0
  7  8  2  0
 10 14  1  0
 10 11  1  0
 11 12  1  0
 12 13  1  0
 13 14  1  0
M  END
>  <name>  (675) 
Car Nac Nd0 Car Nac Nac Cs2 .=O Cs3 C3r C3r C3r C3r C3r

>  <indices>  (675) 
[0, 1, 2]

>  <tasks>  (675) 
probe_placing close_aromatic_ring close_aromatic_ring close_aromatic_ring ring_built build_to_Nac build_DB_to_Cs2 build_SB_to_Cs2 build_to_Nd0 close_aliphatic_ring close_aliphatic_ring close_aliphatic_ring

>  <prot_clashes>  (675) 
3

>  <NBS phar>  (675) 
0.2

>  <NBS_non-phar>  (675) 
0.4847791535513742

>  <NBS>  (675) 
0.6847791535513742

>  <source_stage>  (675) 
scored

>  <source_iter>  (675) 
11

>  <source_parent_mol>  (675) 
4

>  <source_scenario>  (675) 
1 2 3 1 7 1 0 8 0 1 4

>  <source_rank_in_scored_call>  (675) 
6

>  <source_current_task>  (675) 
close_aliphatic_ring

>  <scenario>  (675) 
1 2 3 1 7 1 0 8 0 1

>  <protected_ring_attachments>  (675) 
3,1,0,2|1,0,2;4,5,0,2|5,0,2

>  <current_task>  (675) 
no_task

>  <rotatable_bond_torsions>  (675) 
1,0,2,9;0,2,9,10;0,5,6,8;2,9,10,11;9,10,11,12

$$$$

     RDKit          3D

 14 15  0  0  0  0  0  0  0  0999 V2000
  -28.4630   -6.6160  -30.8530 C   0  0  0  0  0  0  0  0  0  0  0  0
  -27.9290   -6.6670  -32.1070 N   0  0  0  0  0  0  0  0  0  0  0  0
  -28.8140   -7.8820  -30.1240 N   0  0  0  0  0  0  0  0  0  0  0  0
  -27.6770   -5.4100  -32.5130 C   0  0  0  0  0  0  0  0  0  0  0  0
  -28.0630   -4.5890  -31.4970 N   0  0  0  0  0  0  0  0  0  0  0  0
  -28.5350   -5.3170  -30.5020 N   0  0  0  0  0  0  0  0  0  0  0  0
  -28.9900   -4.8100  -29.3010 C   0  0  0  0  0  0  0  0  0  0  0  0
  -29.4760   -5.4730  -28.4000 O   0  0  0  0  0  0  0  0  0  0  0  0
  -28.7800   -3.3230  -28.9360 C   0  0  0  0  0  0  0  0  0  0  0  0
  -27.7290   -8.4950  -29.2420 C   0  0  1  0  0  0  0  0  0  0  0  0
  -28.2930   -8.1440  -27.8980 C   0  0  0  0  0  0  0  0  0  0  0  0
  -28.1900   -9.2050  -27.1060 O   0  0  0  0  0  0  0  0  0  0  0  0
  -27.8850  -10.3220  -27.8350 C   0  0  0  0  0  0  0  0  0  0  0  0
  -28.0010   -9.9600  -29.2990 C   0  0  0  0  0  0  0  0  0  0  0  0
  1  2  2  0
  1  6  1  0
  1  3  1  0
  2  4  1  0
 10  3  1  6
  4  5  2  0
  5  6  1  0
  6  7  1  0
  7  9  1  0
  7  8  2  0
 10 14  1  0
 10 11  1  0
 11 12  1  0
 12 13  1  0
 13 14  1  0
M  END
>  <name>  (676) 
Car Nac Nd0 Car Nac Nac Cs2 .=O Cs3 C3r C3r O_a C3r C3r

>  <indices>  (676) 
[0, 1, 2]

>  <tasks>  (676) 
probe_placing close_aromatic_ring close_aromatic_ring close_aromatic_ring ring_built build_to_Nac build_DB_to_Cs2 build_SB_to_Cs2 build_to_Nd0 close_aliphatic_ring close_aliphatic_ring close_aliphatic_ring

>  <prot_clashes>  (676) 
5

>  <NBS phar>  (676) 
0.2

>  <NBS_non-phar>  (676) 
0.42094642775399344

>  <NBS>  (676) 
0.6209464277539934

>  <source_stage>  (676) 
scored

>  <source_iter>  (676) 
11

>  <source_parent_mol>  (676) 
1

>  <source_scenario>  (676) 
1 2 3 1 7 1 0 8 0 9 1

>  <source_rank_in_scored_call>  (676) 
1

>  <source_current_task>  (676) 
close_aliphatic_ring

>  <scenario>  (676) 
1 2 3 1 7 1 0 8 0 9

>  <protected_ring_attachments>  (676) 
3,1,0,2|1,0,2;4,5,0,2|5,0,2

>  <current_task>  (676) 
no_task

>  <rotatable_bond_torsions>  (676) 
1,0,2,9;0,2,9,10;0,5,6,8;2,9,10,11;9,10,11,12

$$$$

     RDKit          3D

 14 15  0  0  0  0  0  0  0  0999 V2000
  -28.6440   -6.5050  -30.8730 C   0  0  0  0  0  0  0  0  0  0  0  0
  -28.0010   -6.6830  -32.0630 N   0  0  0  0  0  0  0  0  0  0  0  0
  -29.1870   -7.6850  -30.1190 N   0  0  0  0  0  0  0  0  0  0  0  0
  -27.5860   -5.4840  -32.5070 C   0  0  0  0  0  0  0  0  0  0  0  0
  -27.9820   -4.5680  -31.5780 N   0  0  0  0  0  0  0  0  0  0  0  0
  -28.6150   -5.1840  -30.5980 N   0  0  0  0  0  0  0  0  0  0  0  0
  -29.1260   -4.5640  -29.4770 C   0  0  0  0  0  0  0  0  0  0  0  0
  -29.7590   -5.1220  -28.5950 O   0  0  0  0  0  0  0  0  0  0  0  0
  -28.8000   -3.0850  -29.1690 C   0  0  0  0  0  0  0  0  0  0  0  0
  -28.3330   -8.3310  -29.1230 C   0  0  1  0  0  0  0  0  0  0  0  0
  -29.2830   -8.9820  -28.1390 C   0  0  0  0  0  0  0  0  0  0  0  0
  -28.5280   -9.8960  -27.4730 O   0  0  0  0  0  0  0  0  0  0  0  0
  -27.3350  -10.1840  -28.0140 C   0  0  0  0  0  0  0  0  0  0  0  0
  -27.3120   -9.4520  -29.3650 C   0  0  0  0  0  0  0  0  0  0  0  0
  1  2  2  0
  1  6  1  0
  1  3  1  0
  2  4  1  0
 10  3  1  6
  4  5  2  0
  5  6  1  0
  6  7  1  0
  7  9  1  0
  7  8  2  0
 10 14  1  0
 10 11  1  0
 11 12  1  0
 12 13  1  0
 13 14  1  0
M  END
>  <name>  (677) 
Car Nac Nd0 Car Nac Nac Cs2 .=O Cs3 C3r C3r O_a C3r C3r

>  <indices>  (677) 
[0, 1, 2]

>  <tasks>  (677) 
probe_placing close_aromatic_ring close_aromatic_ring close_aromatic_ring ring_built build_to_Nac build_DB_to_Cs2 build_SB_to_Cs2 build_to_Nd0 close_aliphatic_ring close_aliphatic_ring close_aliphatic_ring

>  <prot_clashes>  (677) 
7

>  <NBS phar>  (677) 
0.1

>  <NBS_non-phar>  (677) 
0.47976241792951313

>  <NBS>  (677) 
0.5797624179295131

>  <source_stage>  (677) 
scored

>  <source_iter>  (677) 
11

>  <source_parent_mol>  (677) 
0

>  <source_scenario>  (677) 
1 2 3 1 7 1 0 8 1 5 0

>  <source_rank_in_scored_call>  (677) 
3

>  <source_current_task>  (677) 
close_aliphatic_ring

>  <scenario>  (677) 
1 2 3 1 7 1 0 8 1 5

>  <protected_ring_attachments>  (677) 
3,1,0,2|1,0,2;4,5,0,2|5,0,2

>  <current_task>  (677) 
no_task

>  <rotatable_bond_torsions>  (677) 
1,0,2,9;0,2,9,10;0,5,6,8;2,9,10,11;9,10,11,12

$$$$

     RDKit          3D

 14 15  0  0  0  0  0  0  0  0999 V2000
  -28.5770   -6.4470  -30.9700 C   0  0  0  0  0  0  0  0  0  0  0  0
  -27.9720   -6.5330  -32.1910 N   0  0  0  0  0  0  0  0  0  0  0  0
  -29.1860   -7.6650  -30.3370 N   0  0  0  0  0  0  0  0  0  0  0  0
  -27.4820   -5.3220  -32.5100 C   0  0  0  0  0  0  0  0  0  0  0  0
  -27.7930   -4.4930  -31.4750 N   0  0  0  0  0  0  0  0  0  0  0  0
  -28.4490   -5.1720  -30.5520 N   0  0  0  0  0  0  0  0  0  0  0  0
  -28.8930   -4.6480  -29.3550 C   0  0  0  0  0  0  0  0  0  0  0  0
  -29.5460   -5.2570  -28.5240 O   0  0  0  0  0  0  0  0  0  0  0  0
  -28.4570   -3.2380  -28.8950 C   0  0  0  0  0  0  0  0  0  0  0  0
  -28.3010   -8.4990  -29.3080 C   0  0  1  0  0  0  0  0  0  0  0  0
  -29.4750   -9.2570  -28.7630 C   0  0  0  0  0  0  0  0  0  0  0  0
  -28.9910  -10.6790  -28.6580 C   0  0  0  0  0  0  0  0  0  0  0  0
  -28.0490  -10.7870  -29.6810 O   0  0  0  0  0  0  0  0  0  0  0  0
  -27.3450   -9.5870  -29.7110 C   0  0  0  0  0  0  0  0  0  0  0  0
  1  2  2  0
  1  6  1  0
  1  3  1  0
  2  4  1  0
 10  3  1  6
  4  5  2  0
  5  6  1  0
  6  7  1  0
  7  9  1  0
  7  8  2  0
 10 14  1  0
 10 11  1  0
 11 12  1  0
 12 13  1  0
 13 14  1  0
M  END
>  <name>  (678) 
Car Nac Nd0 Car Nac Nac Cs2 .=O Cs3 C3r C3r C3r O_a C3r

>  <indices>  (678) 
[0, 1, 2]

>  <tasks>  (678) 
probe_placing close_aromatic_ring close_aromatic_ring close_aromatic_ring ring_built build_to_Nac build_DB_to_Cs2 build_SB_to_Cs2 build_to_Nd0 close_aliphatic_ring close_aliphatic_ring close_aliphatic_ring

>  <prot_clashes>  (678) 
7

>  <NBS phar>  (678) 
0.22000000000000003

>  <NBS_non-phar>  (678) 
0.5252163750784737

>  <NBS>  (678) 
0.7452163750784737

>  <source_stage>  (678) 
scored

>  <source_iter>  (678) 
11

>  <source_parent_mol>  (678) 
3

>  <source_scenario>  (678) 
1 2 3 1 7 1 0 8 1 9 3

>  <source_rank_in_scored_call>  (678) 
0

>  <source_current_task>  (678) 
close_aliphatic_ring

>  <scenario>  (678) 
1 2 3 1 7 1 0 8 1 9

>  <protected_ring_attachments>  (678) 
3,1,0,2|1,0,2;4,5,0,2|5,0,2

>  <current_task>  (678) 
no_task

>  <rotatable_bond_torsions>  (678) 
1,0,2,9;0,2,9,10;0,5,6,8;2,9,10,11;9,10,11,12

$$$$

     RDKit          3D

 14 15  0  0  0  0  0  0  0  0999 V2000
  -28.5760   -6.0780  -30.5900 C   0  0  0  0  0  0  0  0  0  0  0  0
  -27.9690   -6.5590  -31.7120 N   0  0  0  0  0  0  0  0  0  0  0  0
  -29.1800   -7.0210  -29.5880 N   0  0  0  0  0  0  0  0  0  0  0  0
  -27.4850   -5.5210  -32.4150 C   0  0  0  0  0  0  0  0  0  0  0  0
  -27.8030   -4.3960  -31.7110 N   0  0  0  0  0  0  0  0  0  0  0  0
  -28.4560   -4.7360  -30.6160 N   0  0  0  0  0  0  0  0  0  0  0  0
  -28.9060   -3.8470  -29.6600 C   0  0  0  0  0  0  0  0  0  0  0  0
  -29.5570   -4.1510  -28.6740 O   0  0  0  0  0  0  0  0  0  0  0  0
  -28.4790   -2.3630  -29.6930 C   0  0  0  0  0  0  0  0  0  0  0  0
  -28.0640   -7.2610  -28.3810 C   0  0  2  0  0  0  0  0  0  0  0  0
  -27.3050   -8.1450  -29.3560 C   0  0  0  0  0  0  0  0  0  0  0  0
  -26.5640   -9.0460  -28.6140 O   0  0  0  0  0  0  0  0  0  0  0  0
  -26.9740   -9.0340  -27.2960 C   0  0  0  0  0  0  0  0  0  0  0  0
  -28.2800   -8.2860  -27.2630 C   0  0  0  0  0  0  0  0  0  0  0  0
  1  2  2  0
  1  6  1  0
  1  3  1  0
  2  4  1  0
 10  3  1  6
  4  5  2  0
  5  6  1  0
  6  7  1  0
  7  9  1  0
  7  8  2  0
 10 11  1  0
 10 14  1  0
 11 12  1  0
 12 13  1  0
 13 14  1  0
M  END
>  <name>  (679) 
Car Nac Nd0 Car Nac Nac Cs2 .=O Cs3 C3r C3r O_a C3r C3r

>  <indices>  (679) 
[0, 1, 2]

>  <tasks>  (679) 
probe_placing close_aromatic_ring close_aromatic_ring close_aromatic_ring ring_built build_to_Nac build_DB_to_Cs2 build_SB_to_Cs2 build_to_Nd0 close_aliphatic_ring close_aliphatic_ring close_aliphatic_ring

>  <prot_clashes>  (679) 
6

>  <NBS phar>  (679) 
0.12

>  <NBS_non-phar>  (679) 
0.5051516124180385

>  <NBS>  (679) 
0.6251516124180385

>  <source_stage>  (679) 
scored

>  <source_iter>  (679) 
11

>  <source_parent_mol>  (679) 
0

>  <source_scenario>  (679) 
1 2 3 1 7 1 0 8 3 0 0

>  <source_rank_in_scored_call>  (679) 
1

>  <source_current_task>  (679) 
close_aliphatic_ring

>  <scenario>  (679) 
1 2 3 1 7 1 0 8 3 0

>  <protected_ring_attachments>  (679) 
3,1,0,2|1,0,2;4,5,0,2|5,0,2

>  <current_task>  (679) 
no_task

>  <rotatable_bond_torsions>  (679) 
1,0,2,9;0,2,9,10;0,5,6,8;2,9,10,11;9,10,11,12

$$$$

     RDKit          3D

 15 16  0  0  0  0  0  0  0  0999 V2000
  -28.7740   -6.0940  -30.6600 C   0  0  0  0  0  0  0  0  0  0  0  0
  -28.3700   -6.5730  -31.8720 N   0  0  0  0  0  0  0  0  0  0  0  0
  -29.5250   -6.9770  -29.7040 N   0  0  0  0  0  0  0  0  0  0  0  0
  -27.6950   -5.6030  -32.5110 C   0  0  0  0  0  0  0  0  0  0  0  0
  -27.6890   -4.5220  -31.6790 N   0  0  0  0  0  0  0  0  0  0  0  0
  -28.3370   -4.8220  -30.5680 N   0  0  0  0  0  0  0  0  0  0  0  0
  -28.4990   -3.9670  -29.4970 C   0  0  0  0  0  0  0  0  0  0  0  0
  -29.1430   -4.2200  -28.4920 O   0  0  0  0  0  0  0  0  0  0  0  0
  -27.7310   -2.6290  -29.4260 C   0  0  0  0  0  0  0  0  0  0  0  0
  -28.7920   -7.7710  -28.7270 C   0  0  1  0  0  0  0  0  0  0  0  0
  -27.8870   -8.4750  -29.7060 C   0  0  0  0  0  0  0  0  0  0  0  0
  -27.5970   -9.7660  -29.2750 O   0  0  0  0  0  0  0  0  0  0  0  0
  -26.9620   -9.7900  -28.0580 C   0  0  0  0  0  0  0  0  0  0  0  0
  -27.8110   -9.1530  -26.9920 C   0  0  0  0  0  0  0  0  0  0  0  0
  -28.0690   -7.7230  -27.4020 C   0  0  0  0  0  0  0  0  0  0  0  0
  1  2  2  0
  1  6  1  0
  1  3  1  0
  2  4  1  0
 10  3  1  6
  4  5  2  0
  5  6  1  0
  6  7  1  0
  7  9  1  0
  7  8  2  0
 10 11  1  0
 10 15  1  0
 11 12  1  0
 12 13  1  0
 13 14  1  0
 14 15  1  0
M  END
>  <name>  (680) 
Car Nac Nd0 Car Nac Nac Cs2 .=O Cs3 C3r C3r O_a C3r C3r C3r

>  <indices>  (680) 
[0, 1, 2]

>  <tasks>  (680) 
probe_placing close_aromatic_ring close_aromatic_ring close_aromatic_ring ring_built build_to_Nac build_DB_to_Cs2 build_SB_to_Cs2 build_to_Nd0 close_aliphatic_ring close_aliphatic_ring close_aliphatic_ring close_aliphatic_ring

>  <prot_clashes>  (680) 
9

>  <NBS phar>  (680) 
0.2

>  <NBS_non-phar>  (680) 
0.36707719167073566

>  <NBS>  (680) 
0.5670771916707357

>  <source_stage>  (680) 
scored

>  <source_iter>  (680) 
12

>  <source_parent_mol>  (680) 
0

>  <source_scenario>  (680) 
1 2 3 1 7 1 0 8 3 0 0 0

>  <source_rank_in_scored_call>  (680) 
0

>  <source_current_task>  (680) 
close_aliphatic_ring

>  <scenario>  (680) 
1 2 3 1 7 1 0 8 3 0 0

>  <protected_ring_attachments>  (680) 
3,1,0,2|1,0,2;4,5,0,2|5,0,2

>  <current_task>  (680) 
no_task

>  <rotatable_bond_torsions>  (680) 
1,0,2,9;0,2,9,10;0,5,6,8;2,9,10,11;9,10,11,12;10,11,12,13

$$$$

     RDKit          3D

 16 17  0  0  0  0  0  0  0  0999 V2000
  -28.7810   -6.0950  -30.6590 C   0  0  0  0  0  0  0  0  0  0  0  0
  -28.3860   -6.5790  -31.8720 N   0  0  0  0  0  0  0  0  0  0  0  0
  -29.5390   -6.9690  -29.7010 N   0  0  0  0  0  0  0  0  0  0  0  0
  -27.7010   -5.6170  -32.5130 C   0  0  0  0  0  0  0  0  0  0  0  0
  -27.6790   -4.5360  -31.6810 N   0  0  0  0  0  0  0  0  0  0  0  0
  -28.3280   -4.8290  -30.5680 N   0  0  0  0  0  0  0  0  0  0  0  0
  -28.4760   -3.9720  -29.4960 C   0  0  0  0  0  0  0  0  0  0  0  0
  -29.1200   -4.2180  -28.4890 O   0  0  0  0  0  0  0  0  0  0  0  0
  -27.6910   -2.6440  -29.4270 C   0  0  0  0  0  0  0  0  0  0  0  0
  -28.8130   -7.7730  -28.7270 C   0  0  1  0  0  0  0  0  0  0  0  0
  -27.9200   -8.4870  -29.7090 C   0  0  0  0  0  0  0  0  0  0  0  0
  -27.6440   -9.7820  -29.2790 O   0  0  0  0  0  0  0  0  0  0  0  0
  -27.0060   -9.8140  -28.0640 C   0  0  0  0  0  0  0  0  0  0  0  0
  -27.8440   -9.1670  -26.9950 C   0  0  0  0  0  0  0  0  0  0  0  0
  -28.0860   -7.7340  -27.4040 C   0  0  0  0  0  0  0  0  0  0  0  0
  -28.1610   -1.6200  -30.5060 C   0  0  0  0  0  0  0  0  0  0  0  0
  1  2  2  0
  1  6  1  0
  1  3  1  0
  2  4  1  0
 10  3  1  6
  4  5  2  0
  5  6  1  0
  6  7  1  0
  7  9  1  0
  7  8  2  0
 10 11  1  0
 10 15  1  0
 11 12  1  0
 12 13  1  0
 13 14  1  0
 14 15  1  0
  9 16  1  0
M  END
>  <name>  (681) 
Car Nac Nd0 Car Nac Nac Cs2 .=O Cs3 C3r C3r O_a C3r C3r C3r Cs3

>  <indices>  (681) 
[0, 1, 2]

>  <tasks>  (681) 
probe_placing close_aromatic_ring close_aromatic_ring close_aromatic_ring ring_built build_to_Nac build_DB_to_Cs2 build_SB_to_Cs2 build_to_Nd0 close_aliphatic_ring close_aliphatic_ring close_aliphatic_ring close_aliphatic_ring close_aliphatic_ring

>  <prot_clashes>  (681) 
11

>  <NBS phar>  (681) 
0.24000000000000005

>  <NBS_non-phar>  (681) 
0.4580194056034088

>  <NBS>  (681) 
0.6980194056034088

>  <source_stage>  (681) 
scored

>  <source_iter>  (681) 
13

>  <source_parent_mol>  (681) 
0

>  <source_scenario>  (681) 
1 2 3 1 7 1 0 8 3 0 0 0 0

>  <source_rank_in_scored_call>  (681) 
7

>  <source_current_task>  (681) 
no_task

>  <scenario>  (681) 
1 2 3 1 7 1 0 8 3 0 0 0

>  <protected_ring_attachments>  (681) 
3,1,0,2|1,0,2;4,5,0,2|5,0,2;11,10,9,2|10,9,2;13,14,9,2|14,9,2

>  <current_task>  (681) 
no_task

>  <rotatable_bond_torsions>  (681) 
1,0,2,9;0,2,9,10;0,5,6,8

$$$$

     RDKit          3D

 16 17  0  0  0  0  0  0  0  0999 V2000
  -28.7780   -6.0990  -30.6580 C   0  0  0  0  0  0  0  0  0  0  0  0
  -28.3840   -6.5860  -31.8700 N   0  0  0  0  0  0  0  0  0  0  0  0
  -29.5380   -6.9710  -29.6990 N   0  0  0  0  0  0  0  0  0  0  0  0
  -27.6980   -5.6260  -32.5130 C   0  0  0  0  0  0  0  0  0  0  0  0
  -27.6760   -4.5430  -31.6830 N   0  0  0  0  0  0  0  0  0  0  0  0
  -28.3250   -4.8330  -30.5700 N   0  0  0  0  0  0  0  0  0  0  0  0
  -28.4730   -3.9740  -29.5000 C   0  0  0  0  0  0  0  0  0  0  0  0
  -29.1170   -4.2170  -28.4930 O   0  0  0  0  0  0  0  0  0  0  0  0
  -27.6870   -2.6460  -29.4330 C   0  0  0  0  0  0  0  0  0  0  0  0
  -28.8130   -7.7720  -28.7220 C   0  0  1  0  0  0  0  0  0  0  0  0
  -27.9200   -8.4900  -29.7020 C   0  0  0  0  0  0  0  0  0  0  0  0
  -27.6450   -9.7840  -29.2700 O   0  0  0  0  0  0  0  0  0  0  0  0
  -27.0080   -9.8140  -28.0540 C   0  0  0  0  0  0  0  0  0  0  0  0
  -27.8460   -9.1640  -26.9870 C   0  0  0  0  0  0  0  0  0  0  0  0
  -28.0860   -7.7310  -27.3990 C   0  0  0  0  0  0  0  0  0  0  0  0
  -28.1770   -1.7180  -30.5410 C   0  0  0  0  0  0  0  0  0  0  0  0
  1  2  2  0
  1  6  1  0
  1  3  1  0
  2  4  1  0
 10  3  1  6
  4  5  2  0
  5  6  1  0
  6  7  1  0
  7  9  1  0
  7  8  2  0
 10 11  1  0
 10 15  1  0
 11 12  1  0
 12 13  1  0
 13 14  1  0
 14 15  1  0
  9 16  1  0
M  END
>  <name>  (682) 
Car Nac Nd0 Car Nac Nac Cs2 .=O Cs3 C3r C3r O_a C3r C3r C3r Cs3

>  <indices>  (682) 
[0, 1, 2]

>  <tasks>  (682) 
probe_placing close_aromatic_ring close_aromatic_ring close_aromatic_ring ring_built build_to_Nac build_DB_to_Cs2 build_SB_to_Cs2 build_to_Nd0 close_aliphatic_ring close_aliphatic_ring close_aliphatic_ring close_aliphatic_ring close_aliphatic_ring

>  <prot_clashes>  (682) 
11

>  <NBS phar>  (682) 
0.24000000000000005

>  <NBS_non-phar>  (682) 
0.4577925205230713

>  <NBS>  (682) 
0.6977925205230713

>  <source_stage>  (682) 
scored

>  <source_iter>  (682) 
13

>  <source_parent_mol>  (682) 
0

>  <source_scenario>  (682) 
1 2 3 1 7 1 0 8 3 0 0 0 0

>  <source_rank_in_scored_call>  (682) 
8

>  <source_current_task>  (682) 
no_task

>  <scenario>  (682) 
1 2 3 1 7 1 0 8 3 0 0 0

>  <protected_ring_attachments>  (682) 
3,1,0,2|1,0,2;4,5,0,2|5,0,2;11,10,9,2|10,9,2;13,14,9,2|14,9,2

>  <current_task>  (682) 
no_task

>  <rotatable_bond_torsions>  (682) 
1,0,2,9;0,2,9,10;0,5,6,8

$$$$

     RDKit          3D

 16 17  0  0  0  0  0  0  0  0999 V2000
  -28.7830   -6.0630  -30.6520 C   0  0  0  0  0  0  0  0  0  0  0  0
  -28.3710   -6.5200  -31.8700 N   0  0  0  0  0  0  0  0  0  0  0  0
  -29.5400   -6.9620  -29.7170 N   0  0  0  0  0  0  0  0  0  0  0  0
  -27.6920   -5.5390  -32.4870 C   0  0  0  0  0  0  0  0  0  0  0  0
  -27.6920   -4.4730  -31.6360 N   0  0  0  0  0  0  0  0  0  0  0  0
  -28.3470   -4.7920  -30.5350 N   0  0  0  0  0  0  0  0  0  0  0  0
  -28.5160   -3.9560  -29.4500 C   0  0  0  0  0  0  0  0  0  0  0  0
  -29.1660   -4.2270  -28.4540 O   0  0  0  0  0  0  0  0  0  0  0  0
  -27.7490   -2.6200  -29.3510 C   0  0  0  0  0  0  0  0  0  0  0  0
  -28.8130   -7.7730  -28.7490 C   0  0  1  0  0  0  0  0  0  0  0  0
  -27.9020   -8.4600  -29.7340 C   0  0  0  0  0  0  0  0  0  0  0  0
  -27.6140   -9.7580  -29.3240 O   0  0  0  0  0  0  0  0  0  0  0  0
  -26.9870   -9.8040  -28.1040 C   0  0  0  0  0  0  0  0  0  0  0  0
  -27.8430   -9.1860  -27.0320 C   0  0  0  0  0  0  0  0  0  0  0  0
  -28.0990   -7.7490  -27.4190 C   0  0  0  0  0  0  0  0  0  0  0  0
  -27.6860   -1.8130  -30.6490 C   0  0  0  0  0  0  0  0  0  0  0  0
  1  2  2  0
  1  6  1  0
  1  3  1  0
  2  4  1  0
 10  3  1  6
  4  5  2  0
  5  6  1  0
  6  7  1  0
  7  9  1  0
  7  8  2  0
 10 11  1  0
 10 15  1  0
 11 12  1  0
 12 13  1  0
 13 14  1  0
 14 15  1  0
  9 16  1  0
M  END
>  <name>  (683) 
Car Nac Nd0 Car Nac Nac Cs2 .=O Cs3 C3r C3r O_a C3r C3r C3r Cs3

>  <indices>  (683) 
[0, 1, 2]

>  <tasks>  (683) 
probe_placing close_aromatic_ring close_aromatic_ring close_aromatic_ring ring_built build_to_Nac build_DB_to_Cs2 build_SB_to_Cs2 build_to_Nd0 close_aliphatic_ring close_aliphatic_ring close_aliphatic_ring close_aliphatic_ring close_aliphatic_ring

>  <prot_clashes>  (683) 
10

>  <NBS phar>  (683) 
0.22000000000000003

>  <NBS_non-phar>  (683) 
0.4176310896873474

>  <NBS>  (683) 
0.6376310896873474

>  <source_stage>  (683) 
scored

>  <source_iter>  (683) 
13

>  <source_parent_mol>  (683) 
0

>  <source_scenario>  (683) 
1 2 3 1 7 1 0 8 3 0 0 0 0

>  <source_rank_in_scored_call>  (683) 
21

>  <source_current_task>  (683) 
no_task

>  <scenario>  (683) 
1 2 3 1 7 1 0 8 3 0 0 0

>  <protected_ring_attachments>  (683) 
3,1,0,2|1,0,2;4,5,0,2|5,0,2;11,10,9,2|10,9,2;13,14,9,2|14,9,2

>  <current_task>  (683) 
no_task

>  <rotatable_bond_torsions>  (683) 
1,0,2,9;0,2,9,10;0,5,6,8

$$$$

     RDKit          3D

 16 17  0  0  0  0  0  0  0  0999 V2000
  -28.7800   -6.0720  -30.6240 C   0  0  0  0  0  0  0  0  0  0  0  0
  -28.3620   -6.5060  -31.8470 N   0  0  0  0  0  0  0  0  0  0  0  0
  -29.5390   -6.9910  -29.7080 N   0  0  0  0  0  0  0  0  0  0  0  0
  -27.6830   -5.5110  -32.4440 C   0  0  0  0  0  0  0  0  0  0  0  0
  -27.6900   -4.4610  -31.5740 N   0  0  0  0  0  0  0  0  0  0  0  0
  -28.3490   -4.8030  -30.4810 N   0  0  0  0  0  0  0  0  0  0  0  0
  -28.5260   -3.9870  -29.3820 C   0  0  0  0  0  0  0  0  0  0  0  0
  -29.1800   -4.2780  -28.3940 O   0  0  0  0  0  0  0  0  0  0  0  0
  -27.7640   -2.6500  -29.2550 C   0  0  0  0  0  0  0  0  0  0  0  0
  -28.8130   -7.8170  -28.7520 C   0  0  1  0  0  0  0  0  0  0  0  0
  -27.8950   -8.4830  -29.7460 C   0  0  0  0  0  0  0  0  0  0  0  0
  -27.6050   -9.7870  -29.3580 O   0  0  0  0  0  0  0  0  0  0  0  0
  -26.9830   -9.8530  -28.1360 C   0  0  0  0  0  0  0  0  0  0  0  0
  -27.8460   -9.2570  -27.0570 C   0  0  0  0  0  0  0  0  0  0  0  0
  -28.1050   -7.8140  -27.4180 C   0  0  0  0  0  0  0  0  0  0  0  0
  -27.6840   -2.2540  -27.8470 C   0  0  0  0  0  0  0  0  0  0  0  0
  1  2  2  0
  1  6  1  0
  1  3  1  0
  2  4  1  0
 10  3  1  6
  4  5  2  0
  5  6  1  0
  6  7  1  0
  7  9  1  0
  7  8  2  0
 10 11  1  0
 10 15  1  0
 11 12  1  0
 12 13  1  0
 13 14  1  0
 14 15  1  0
  9 16  1  0
M  END
>  <name>  (684) 
Car Nac Nd0 Car Nac Nac Cs2 .=O Cs3 C3r C3r O_a C3r C3r C3r Cs3

>  <indices>  (684) 
[0, 1, 2]

>  <tasks>  (684) 
probe_placing close_aromatic_ring close_aromatic_ring close_aromatic_ring ring_built build_to_Nac build_DB_to_Cs2 build_SB_to_Cs2 build_to_Nd0 close_aliphatic_ring close_aliphatic_ring close_aliphatic_ring close_aliphatic_ring close_aliphatic_ring

>  <prot_clashes>  (684) 
9

>  <NBS phar>  (684) 
0.2

>  <NBS_non-phar>  (684) 
0.4102659225463867

>  <NBS>  (684) 
0.6102659225463867

>  <source_stage>  (684) 
scored

>  <source_iter>  (684) 
13

>  <source_parent_mol>  (684) 
0

>  <source_scenario>  (684) 
1 2 3 1 7 1 0 8 3 0 0 0 0

>  <source_rank_in_scored_call>  (684) 
36

>  <source_current_task>  (684) 
no_task

>  <scenario>  (684) 
1 2 3 1 7 1 0 8 3 0 0 0

>  <protected_ring_attachments>  (684) 
3,1,0,2|1,0,2;4,5,0,2|5,0,2;11,10,9,2|10,9,2;13,14,9,2|14,9,2

>  <current_task>  (684) 
no_task

>  <rotatable_bond_torsions>  (684) 
1,0,2,9;0,2,9,10;0,5,6,8

$$$$

     RDKit          3D

 16 17  0  0  0  0  0  0  0  0999 V2000
  -28.7790   -6.0900  -30.6680 C   0  0  0  0  0  0  0  0  0  0  0  0
  -28.3560   -6.5740  -31.8720 N   0  0  0  0  0  0  0  0  0  0  0  0
  -29.5260   -6.9750  -29.7110 N   0  0  0  0  0  0  0  0  0  0  0  0
  -27.6890   -5.6000  -32.5130 C   0  0  0  0  0  0  0  0  0  0  0  0
  -27.7070   -4.5120  -31.6910 N   0  0  0  0  0  0  0  0  0  0  0  0
  -28.3610   -4.8110  -30.5840 N   0  0  0  0  0  0  0  0  0  0  0  0
  -28.5470   -3.9490  -29.5230 C   0  0  0  0  0  0  0  0  0  0  0  0
  -29.1970   -4.2020  -28.5220 O   0  0  0  0  0  0  0  0  0  0  0  0
  -27.7990   -2.5990  -29.4570 C   0  0  0  0  0  0  0  0  0  0  0  0
  -28.7910   -7.7490  -28.7200 C   0  0  1  0  0  0  0  0  0  0  0  0
  -27.8660   -8.4490  -29.6830 C   0  0  0  0  0  0  0  0  0  0  0  0
  -27.5620   -9.7310  -29.2370 O   0  0  0  0  0  0  0  0  0  0  0  0
  -26.9380   -9.7350  -28.0140 C   0  0  0  0  0  0  0  0  0  0  0  0
  -27.8070   -9.1000  -26.9620 C   0  0  0  0  0  0  0  0  0  0  0  0
  -28.0820   -7.6780  -27.3880 C   0  0  0  0  0  0  0  0  0  0  0  0
  -28.6870   -1.4990  -28.9690 C   0  0  0  0  0  0  0  0  0  0  0  0
  1  2  2  0
  1  6  1  0
  1  3  1  0
  2  4  1  0
 10  3  1  6
  4  5  2  0
  5  6  1  0
  6  7  1  0
  7  9  1  0
  7  8  2  0
 10 11  1  0
 10 15  1  0
 11 12  1  0
 12 13  1  0
 13 14  1  0
 14 15  1  0
  9 16  1  0
M  END
>  <name>  (685) 
Car Nac Nd0 Car Nac Nac Cs2 .=O Cs3 C3r C3r O_a C3r C3r C3r Cs3

>  <indices>  (685) 
[0, 1, 2]

>  <tasks>  (685) 
probe_placing close_aromatic_ring close_aromatic_ring close_aromatic_ring ring_built build_to_Nac build_DB_to_Cs2 build_SB_to_Cs2 build_to_Nd0 close_aliphatic_ring close_aliphatic_ring close_aliphatic_ring close_aliphatic_ring close_aliphatic_ring

>  <prot_clashes>  (685) 
9

>  <NBS phar>  (685) 
0.2

>  <NBS_non-phar>  (685) 
0.40934377908706665

>  <NBS>  (685) 
0.6093437790870666

>  <source_stage>  (685) 
scored

>  <source_iter>  (685) 
13

>  <source_parent_mol>  (685) 
0

>  <source_scenario>  (685) 
1 2 3 1 7 1 0 8 3 0 0 0 0

>  <source_rank_in_scored_call>  (685) 
37

>  <source_current_task>  (685) 
no_task

>  <scenario>  (685) 
1 2 3 1 7 1 0 8 3 0 0 0

>  <protected_ring_attachments>  (685) 
3,1,0,2|1,0,2;4,5,0,2|5,0,2;11,10,9,2|10,9,2;13,14,9,2|14,9,2

>  <current_task>  (685) 
no_task

>  <rotatable_bond_torsions>  (685) 
1,0,2,9;0,2,9,10;0,5,6,8

$$$$

     RDKit          3D

 16 17  0  0  0  0  0  0  0  0999 V2000
  -28.7780   -6.0900  -30.6690 C   0  0  0  0  0  0  0  0  0  0  0  0
  -28.3550   -6.5740  -31.8720 N   0  0  0  0  0  0  0  0  0  0  0  0
  -29.5260   -6.9750  -29.7120 N   0  0  0  0  0  0  0  0  0  0  0  0
  -27.6880   -5.6000  -32.5130 C   0  0  0  0  0  0  0  0  0  0  0  0
  -27.7060   -4.5110  -31.6910 N   0  0  0  0  0  0  0  0  0  0  0  0
  -28.3610   -4.8110  -30.5840 N   0  0  0  0  0  0  0  0  0  0  0  0
  -28.5470   -3.9480  -29.5230 C   0  0  0  0  0  0  0  0  0  0  0  0
  -29.1980   -4.2010  -28.5220 O   0  0  0  0  0  0  0  0  0  0  0  0
  -27.8000   -2.5980  -29.4570 C   0  0  0  0  0  0  0  0  0  0  0  0
  -28.7910   -7.7490  -28.7200 C   0  0  1  0  0  0  0  0  0  0  0  0
  -27.8660   -8.4480  -29.6830 C   0  0  0  0  0  0  0  0  0  0  0  0
  -27.5610   -9.7310  -29.2370 O   0  0  0  0  0  0  0  0  0  0  0  0
  -26.9380   -9.7340  -28.0140 C   0  0  0  0  0  0  0  0  0  0  0  0
  -27.8080   -9.1000  -26.9620 C   0  0  0  0  0  0  0  0  0  0  0  0
  -28.0830   -7.6780  -27.3890 C   0  0  0  0  0  0  0  0  0  0  0  0
  -28.6990   -1.4230  -29.1720 C   0  0  0  0  0  0  0  0  0  0  0  0
  1  2  2  0
  1  6  1  0
  1  3  1  0
  2  4  1  0
 10  3  1  6
  4  5  2  0
  5  6  1  0
  6  7  1  0
  7  9  1  0
  7  8  2  0
 10 11  1  0
 10 15  1  0
 11 12  1  0
 12 13  1  0
 13 14  1  0
 14 15  1  0
  9 16  1  0
M  END
>  <name>  (686) 
Car Nac Nd0 Car Nac Nac Cs2 .=O Cs3 C3r C3r O_a C3r C3r C3r Cs3

>  <indices>  (686) 
[0, 1, 2]

>  <tasks>  (686) 
probe_placing close_aromatic_ring close_aromatic_ring close_aromatic_ring ring_built build_to_Nac build_DB_to_Cs2 build_SB_to_Cs2 build_to_Nd0 close_aliphatic_ring close_aliphatic_ring close_aliphatic_ring close_aliphatic_ring close_aliphatic_ring

>  <prot_clashes>  (686) 
9

>  <NBS phar>  (686) 
0.2

>  <NBS_non-phar>  (686) 
0.4003676772117615

>  <NBS>  (686) 
0.6003676772117614

>  <source_stage>  (686) 
scored

>  <source_iter>  (686) 
13

>  <source_parent_mol>  (686) 
0

>  <source_scenario>  (686) 
1 2 3 1 7 1 0 8 3 0 0 0 0

>  <source_rank_in_scored_call>  (686) 
38

>  <source_current_task>  (686) 
no_task

>  <scenario>  (686) 
1 2 3 1 7 1 0 8 3 0 0 0

>  <protected_ring_attachments>  (686) 
3,1,0,2|1,0,2;4,5,0,2|5,0,2;11,10,9,2|10,9,2;13,14,9,2|14,9,2

>  <current_task>  (686) 
no_task

>  <rotatable_bond_torsions>  (686) 
1,0,2,9;0,2,9,10;0,5,6,8

$$$$

     RDKit          3D

 16 17  0  0  0  0  0  0  0  0999 V2000
  -28.7750   -6.0890  -30.6650 C   0  0  0  0  0  0  0  0  0  0  0  0
  -28.3560   -6.5750  -31.8690 N   0  0  0  0  0  0  0  0  0  0  0  0
  -29.5230   -6.9710  -29.7060 N   0  0  0  0  0  0  0  0  0  0  0  0
  -27.6890   -5.6030  -32.5130 C   0  0  0  0  0  0  0  0  0  0  0  0
  -27.7020   -4.5140  -31.6920 N   0  0  0  0  0  0  0  0  0  0  0  0
  -28.3550   -4.8110  -30.5830 N   0  0  0  0  0  0  0  0  0  0  0  0
  -28.5350   -3.9470  -29.5220 C   0  0  0  0  0  0  0  0  0  0  0  0
  -29.1840   -4.1980  -28.5190 O   0  0  0  0  0  0  0  0  0  0  0  0
  -27.7850   -2.5990  -29.4590 C   0  0  0  0  0  0  0  0  0  0  0  0
  -28.7880   -7.7470  -28.7160 C   0  0  1  0  0  0  0  0  0  0  0  0
  -27.8670   -8.4490  -29.6810 C   0  0  0  0  0  0  0  0  0  0  0  0
  -27.5640   -9.7320  -29.2350 O   0  0  0  0  0  0  0  0  0  0  0  0
  -26.9380   -9.7360  -28.0130 C   0  0  0  0  0  0  0  0  0  0  0  0
  -27.8030   -9.0990  -26.9600 C   0  0  0  0  0  0  0  0  0  0  0  0
  -28.0750   -7.6760  -27.3860 C   0  0  0  0  0  0  0  0  0  0  0  0
  -28.6400   -1.3830  -29.6670 C   0  0  0  0  0  0  0  0  0  0  0  0
  1  2  2  0
  1  6  1  0
  1  3  1  0
  2  4  1  0
 10  3  1  6
  4  5  2  0
  5  6  1  0
  6  7  1  0
  7  9  1  0
  7  8  2  0
 10 11  1  0
 10 15  1  0
 11 12  1  0
 12 13  1  0
 13 14  1  0
 14 15  1  0
  9 16  1  0
M  END
>  <name>  (687) 
Car Nac Nd0 Car Nac Nac Cs2 .=O Cs3 C3r C3r O_a C3r C3r C3r Cs3

>  <indices>  (687) 
[0, 1, 2]

>  <tasks>  (687) 
probe_placing close_aromatic_ring close_aromatic_ring close_aromatic_ring ring_built build_to_Nac build_DB_to_Cs2 build_SB_to_Cs2 build_to_Nd0 close_aliphatic_ring close_aliphatic_ring close_aliphatic_ring close_aliphatic_ring close_aliphatic_ring

>  <prot_clashes>  (687) 
9

>  <NBS phar>  (687) 
0.2

>  <NBS_non-phar>  (687) 
0.399127334356308

>  <NBS>  (687) 
0.5991273343563079

>  <source_stage>  (687) 
scored

>  <source_iter>  (687) 
13

>  <source_parent_mol>  (687) 
0

>  <source_scenario>  (687) 
1 2 3 1 7 1 0 8 3 0 0 0 0

>  <source_rank_in_scored_call>  (687) 
39

>  <source_current_task>  (687) 
no_task

>  <scenario>  (687) 
1 2 3 1 7 1 0 8 3 0 0 0

>  <protected_ring_attachments>  (687) 
3,1,0,2|1,0,2;4,5,0,2|5,0,2;11,10,9,2|10,9,2;13,14,9,2|14,9,2

>  <current_task>  (687) 
no_task

>  <rotatable_bond_torsions>  (687) 
1,0,2,9;0,2,9,10;0,5,6,8

$$$$

     RDKit          3D

 16 17  0  0  0  0  0  0  0  0999 V2000
  -28.7920   -6.0760  -30.6350 C   0  0  0  0  0  0  0  0  0  0  0  0
  -28.3560   -6.4940  -31.8590 N   0  0  0  0  0  0  0  0  0  0  0  0
  -29.5430   -7.0140  -29.7330 N   0  0  0  0  0  0  0  0  0  0  0  0
  -27.6890   -5.4840  -32.4420 C   0  0  0  0  0  0  0  0  0  0  0  0
  -27.7210   -4.4400  -31.5650 N   0  0  0  0  0  0  0  0  0  0  0  0
  -28.3840   -4.8000  -30.4810 N   0  0  0  0  0  0  0  0  0  0  0  0
  -28.5840   -3.9960  -29.3780 C   0  0  0  0  0  0  0  0  0  0  0  0
  -29.2420   -4.3050  -28.3970 O   0  0  0  0  0  0  0  0  0  0  0  0
  -27.8450   -2.6470  -29.2340 C   0  0  0  0  0  0  0  0  0  0  0  0
  -28.8120   -7.8340  -28.7770 C   0  0  1  0  0  0  0  0  0  0  0  0
  -27.8740   -8.4770  -29.7670 C   0  0  0  0  0  0  0  0  0  0  0  0
  -27.5660   -9.7800  -29.3850 O   0  0  0  0  0  0  0  0  0  0  0  0
  -26.9540   -9.8430  -28.1580 C   0  0  0  0  0  0  0  0  0  0  0  0
  -27.8360   -9.2700  -27.0830 C   0  0  0  0  0  0  0  0  0  0  0  0
  -28.1160   -7.8290  -27.4370 C   0  0  0  0  0  0  0  0  0  0  0  0
  -27.4670   -2.4140  -27.8400 C   0  0  0  0  0  0  0  0  0  0  0  0
  1  2  2  0
  1  6  1  0
  1  3  1  0
  2  4  1  0
 10  3  1  6
  4  5  2  0
  5  6  1  0
  6  7  1  0
  7  9  1  0
  7  8  2  0
 10 11  1  0
 10 15  1  0
 11 12  1  0
 12 13  1  0
 13 14  1  0
 14 15  1  0
  9 16  1  0
M  END
>  <name>  (688) 
Car Nac Nd0 Car Nac Nac Cs2 .=O Cs3 C3r C3r O_a C3r C3r C3r Cs3

>  <indices>  (688) 
[0, 1, 2]

>  <tasks>  (688) 
probe_placing close_aromatic_ring close_aromatic_ring close_aromatic_ring ring_built build_to_Nac build_DB_to_Cs2 build_SB_to_Cs2 build_to_Nd0 close_aliphatic_ring close_aliphatic_ring close_aliphatic_ring close_aliphatic_ring close_aliphatic_ring

>  <prot_clashes>  (688) 
9

>  <NBS phar>  (688) 
0.2

>  <NBS_non-phar>  (688) 
0.38618549704551697

>  <NBS>  (688) 
0.5861854970455169

>  <source_stage>  (688) 
scored

>  <source_iter>  (688) 
13

>  <source_parent_mol>  (688) 
0

>  <source_scenario>  (688) 
1 2 3 1 7 1 0 8 3 0 0 0 0

>  <source_rank_in_scored_call>  (688) 
43

>  <source_current_task>  (688) 
no_task

>  <scenario>  (688) 
1 2 3 1 7 1 0 8 3 0 0 0

>  <protected_ring_attachments>  (688) 
3,1,0,2|1,0,2;4,5,0,2|5,0,2;11,10,9,2|10,9,2;13,14,9,2|14,9,2

>  <current_task>  (688) 
no_task

>  <rotatable_bond_torsions>  (688) 
1,0,2,9;0,2,9,10;0,5,6,8

$$$$

     RDKit          3D

 16 17  0  0  0  0  0  0  0  0999 V2000
  -28.7450   -6.1300  -30.6330 C   0  0  0  0  0  0  0  0  0  0  0  0
  -27.9940   -6.3770  -31.7450 N   0  0  0  0  0  0  0  0  0  0  0  0
  -29.5230   -7.2360  -29.9780 N   0  0  0  0  0  0  0  0  0  0  0  0
  -27.3790   -5.2390  -32.1060 C   0  0  0  0  0  0  0  0  0  0  0  0
  -27.7600   -4.2890  -31.2050 N   0  0  0  0  0  0  0  0  0  0  0  0
  -28.5790   -4.8290  -30.3210 N   0  0  0  0  0  0  0  0  0  0  0  0
  -29.1350   -4.1580  -29.2510 C   0  0  0  0  0  0  0  0  0  0  0  0
  -29.9350   -4.6370  -28.4650 O   0  0  0  0  0  0  0  0  0  0  0  0
  -28.6600   -2.7380  -28.8710 C   0  0  0  0  0  0  0  0  0  0  0  0
  -28.9010   -8.0290  -28.9250 C   0  0  1  0  0  0  0  0  0  0  0  0
  -27.6840   -8.4500  -29.7080 C   0  0  0  0  0  0  0  0  0  0  0  0
  -27.2710   -9.7260  -29.3370 O   0  0  0  0  0  0  0  0  0  0  0  0
  -26.9380   -9.8120  -28.0080 C   0  0  0  0  0  0  0  0  0  0  0  0
  -28.1100   -9.4590  -27.1330 C   0  0  0  0  0  0  0  0  0  0  0  0
  -28.5220   -8.0450  -27.4630 C   0  0  0  0  0  0  0  0  0  0  0  0
  -27.3290   -2.6680  -28.1790 C   0  0  0  0  0  0  0  0  0  0  0  0
  1  2  2  0
  1  6  1  0
  1  3  1  0
  2  4  1  0
 10  3  1  6
  4  5  2  0
  5  6  1  0
  6  7  1  0
  7  9  1  0
  7  8  2  0
 10 11  1  0
 10 15  1  0
 11 12  1  0
 12 13  1  0
 13 14  1  0
 14 15  1  0
  9 16  1  0
M  END
>  <name>  (689) 
Car Nac Nd0 Car Nac Nac Cs2 .=O Cs3 C3r C3r O_a C3r C3r C3r Cs3

>  <indices>  (689) 
[0, 1, 2]

>  <tasks>  (689) 
probe_placing close_aromatic_ring close_aromatic_ring close_aromatic_ring ring_built build_to_Nac build_DB_to_Cs2 build_SB_to_Cs2 build_to_Nd0 close_aliphatic_ring close_aliphatic_ring close_aliphatic_ring close_aliphatic_ring close_aliphatic_ring

>  <prot_clashes>  (689) 
9

>  <NBS phar>  (689) 
0.0

>  <NBS_non-phar>  (689) 
0.5710206031799316

>  <NBS>  (689) 
0.5710206031799316

>  <source_stage>  (689) 
scored

>  <source_iter>  (689) 
13

>  <source_parent_mol>  (689) 
0

>  <source_scenario>  (689) 
1 2 3 1 7 1 0 8 3 0 0 0 0

>  <source_rank_in_scored_call>  (689) 
47

>  <source_current_task>  (689) 
no_task

>  <scenario>  (689) 
1 2 3 1 7 1 0 8 3 0 0 0

>  <protected_ring_attachments>  (689) 
3,1,0,2|1,0,2;4,5,0,2|5,0,2;11,10,9,2|10,9,2;13,14,9,2|14,9,2

>  <current_task>  (689) 
no_task

>  <rotatable_bond_torsions>  (689) 
1,0,2,9;0,2,9,10;0,5,6,8

$$$$

     RDKit          3D

 16 17  0  0  0  0  0  0  0  0999 V2000
  -28.7830   -6.0910  -30.6630 C   0  0  0  0  0  0  0  0  0  0  0  0
  -28.3640   -6.5620  -31.8740 N   0  0  0  0  0  0  0  0  0  0  0  0
  -29.5400   -6.9820  -29.7200 N   0  0  0  0  0  0  0  0  0  0  0  0
  -27.6870   -5.5850  -32.5010 C   0  0  0  0  0  0  0  0  0  0  0  0
  -27.6950   -4.5080  -31.6630 N   0  0  0  0  0  0  0  0  0  0  0  0
  -28.3530   -4.8170  -30.5610 N   0  0  0  0  0  0  0  0  0  0  0  0
  -28.5300   -3.9680  -29.4870 C   0  0  0  0  0  0  0  0  0  0  0  0
  -29.1840   -4.2290  -28.4900 O   0  0  0  0  0  0  0  0  0  0  0  0
  -27.7690   -2.6270  -29.4010 C   0  0  0  0  0  0  0  0  0  0  0  0
  -28.8130   -7.7770  -28.7390 C   0  0  1  0  0  0  0  0  0  0  0  0
  -27.8950   -8.4720  -29.7120 C   0  0  0  0  0  0  0  0  0  0  0  0
  -27.6030   -9.7640  -29.2850 O   0  0  0  0  0  0  0  0  0  0  0  0
  -26.9810   -9.7910  -28.0610 C   0  0  0  0  0  0  0  0  0  0  0  0
  -27.8440   -9.1640  -27.0010 C   0  0  0  0  0  0  0  0  0  0  0  0
  -28.1040   -7.7330  -27.4060 C   0  0  0  0  0  0  0  0  0  0  0  0
  -28.4200   -1.5560  -28.5550 C   0  0  0  0  0  0  0  0  0  0  0  0
  1  2  2  0
  1  6  1  0
  1  3  1  0
  2  4  1  0
 10  3  1  6
  4  5  2  0
  5  6  1  0
  6  7  1  0
  7  9  1  0
  7  8  2  0
 10 11  1  0
 10 15  1  0
 11 12  1  0
 12 13  1  0
 13 14  1  0
 14 15  1  0
  9 16  1  0
M  END
>  <name>  (690) 
Car Nac Nd0 Car Nac Nac Cs2 .=O Cs3 C3r C3r O_a C3r C3r C3r Cs3

>  <indices>  (690) 
[0, 1, 2]

>  <tasks>  (690) 
probe_placing close_aromatic_ring close_aromatic_ring close_aromatic_ring ring_built build_to_Nac build_DB_to_Cs2 build_SB_to_Cs2 build_to_Nd0 close_aliphatic_ring close_aliphatic_ring close_aliphatic_ring close_aliphatic_ring close_aliphatic_ring

>  <prot_clashes>  (690) 
9

>  <NBS phar>  (690) 
0.2

>  <NBS_non-phar>  (690) 
0.354682058095932

>  <NBS>  (690) 
0.554682058095932

>  <source_stage>  (690) 
scored

>  <source_iter>  (690) 
13

>  <source_parent_mol>  (690) 
0

>  <source_scenario>  (690) 
1 2 3 1 7 1 0 8 3 0 0 0 0

>  <source_rank_in_scored_call>  (690) 
52

>  <source_current_task>  (690) 
no_task

>  <scenario>  (690) 
1 2 3 1 7 1 0 8 3 0 0 0

>  <protected_ring_attachments>  (690) 
3,1,0,2|1,0,2;4,5,0,2|5,0,2;11,10,9,2|10,9,2;13,14,9,2|14,9,2

>  <current_task>  (690) 
no_task

>  <rotatable_bond_torsions>  (690) 
1,0,2,9;0,2,9,10;0,5,6,8

$$$$

     RDKit          3D

 16 17  0  0  0  0  0  0  0  0999 V2000
  -28.7450   -6.1080  -30.6110 C   0  0  0  0  0  0  0  0  0  0  0  0
  -28.1480   -6.4650  -31.7840 N   0  0  0  0  0  0  0  0  0  0  0  0
  -29.5250   -7.1160  -29.8150 N   0  0  0  0  0  0  0  0  0  0  0  0
  -27.4910   -5.3990  -32.2710 C   0  0  0  0  0  0  0  0  0  0  0  0
  -27.6920   -4.3820  -31.3840 N   0  0  0  0  0  0  0  0  0  0  0  0
  -28.4450   -4.8120  -30.3880 N   0  0  0  0  0  0  0  0  0  0  0  0
  -28.8200   -4.0510  -29.3000 C   0  0  0  0  0  0  0  0  0  0  0  0
  -29.5600   -4.4270  -28.4060 O   0  0  0  0  0  0  0  0  0  0  0  0
  -28.1960   -2.6600  -29.0510 C   0  0  0  0  0  0  0  0  0  0  0  0
  -28.8510   -7.9100  -28.7970 C   0  0  1  0  0  0  0  0  0  0  0  0
  -27.7670   -8.4650  -29.6870 C   0  0  0  0  0  0  0  0  0  0  0  0
  -27.4140   -9.7530  -29.2960 O   0  0  0  0  0  0  0  0  0  0  0  0
  -26.9390   -9.8070  -28.0090 C   0  0  0  0  0  0  0  0  0  0  0  0
  -27.9720   -9.3200  -27.0300 C   0  0  0  0  0  0  0  0  0  0  0  0
  -28.3090   -7.8930  -27.3870 C   0  0  0  0  0  0  0  0  0  0  0  0
  -27.3180   -2.6170  -27.8290 C   0  0  0  0  0  0  0  0  0  0  0  0
  1  2  2  0
  1  6  1  0
  1  3  1  0
  2  4  1  0
 10  3  1  6
  4  5  2  0
  5  6  1  0
  6  7  1  0
  7  9  1  0
  7  8  2  0
 10 11  1  0
 10 15  1  0
 11 12  1  0
 12 13  1  0
 13 14  1  0
 14 15  1  0
  9 16  1  0
M  END
>  <name>  (691) 
Car Nac Nd0 Car Nac Nac Cs2 .=O Cs3 C3r C3r O_a C3r C3r C3r Cs3

>  <indices>  (691) 
[0, 1, 2]

>  <tasks>  (691) 
probe_placing close_aromatic_ring close_aromatic_ring close_aromatic_ring ring_built build_to_Nac build_DB_to_Cs2 build_SB_to_Cs2 build_to_Nd0 close_aliphatic_ring close_aliphatic_ring close_aliphatic_ring close_aliphatic_ring close_aliphatic_ring

>  <prot_clashes>  (691) 
9

>  <NBS phar>  (691) 
0.1

>  <NBS_non-phar>  (691) 
0.43610021471977234

>  <NBS>  (691) 
0.5361002147197723

>  <source_stage>  (691) 
scored

>  <source_iter>  (691) 
13

>  <source_parent_mol>  (691) 
0

>  <source_scenario>  (691) 
1 2 3 1 7 1 0 8 3 0 0 0 0

>  <source_rank_in_scored_call>  (691) 
61

>  <source_current_task>  (691) 
no_task

>  <scenario>  (691) 
1 2 3 1 7 1 0 8 3 0 0 0

>  <protected_ring_attachments>  (691) 
3,1,0,2|1,0,2;4,5,0,2|5,0,2;11,10,9,2|10,9,2;13,14,9,2|14,9,2

>  <current_task>  (691) 
no_task

>  <rotatable_bond_torsions>  (691) 
1,0,2,9;0,2,9,10;0,5,6,8

$$$$

     RDKit          3D

 16 17  0  0  0  0  0  0  0  0999 V2000
  -28.7600   -6.1730  -30.6040 C   0  0  0  0  0  0  0  0  0  0  0  0
  -28.0710   -6.4590  -31.7460 N   0  0  0  0  0  0  0  0  0  0  0  0
  -29.5380   -7.2450  -29.8950 N   0  0  0  0  0  0  0  0  0  0  0  0
  -27.4390   -5.3460  -32.1540 C   0  0  0  0  0  0  0  0  0  0  0  0
  -27.7470   -4.3720  -31.2510 N   0  0  0  0  0  0  0  0  0  0  0  0
  -28.5400   -4.8730  -30.3210 N   0  0  0  0  0  0  0  0  0  0  0  0
  -29.0230   -4.1700  -29.2370 C   0  0  0  0  0  0  0  0  0  0  0  0
  -29.7990   -4.6120  -28.4060 O   0  0  0  0  0  0  0  0  0  0  0  0
  -28.4870   -2.7610  -28.9020 C   0  0  0  0  0  0  0  0  0  0  0  0
  -28.8920   -8.0420  -28.8610 C   0  0  1  0  0  0  0  0  0  0  0  0
  -27.7270   -8.5110  -29.6940 C   0  0  0  0  0  0  0  0  0  0  0  0
  -27.3360   -9.7940  -29.3230 O   0  0  0  0  0  0  0  0  0  0  0  0
  -26.9430   -9.8710  -28.0090 C   0  0  0  0  0  0  0  0  0  0  0  0
  -28.0600   -9.4700  -27.0860 C   0  0  0  0  0  0  0  0  0  0  0  0
  -28.4440   -8.0480  -27.4180 C   0  0  0  0  0  0  0  0  0  0  0  0
  -27.3210   -2.8160  -27.9240 C   0  0  0  0  0  0  0  0  0  0  0  0
  1  2  2  0
  1  6  1  0
  1  3  1  0
  2  4  1  0
 10  3  1  6
  4  5  2  0
  5  6  1  0
  6  7  1  0
  7  9  1  0
  7  8  2  0
 10 11  1  0
 10 15  1  0
 11 12  1  0
 12 13  1  0
 13 14  1  0
 14 15  1  0
  9 16  1  0
M  END
>  <name>  (692) 
Car Nac Nd0 Car Nac Nac Cs2 .=O Cs3 C3r C3r O_a C3r C3r C3r Cs3

>  <indices>  (692) 
[0, 1, 2]

>  <tasks>  (692) 
probe_placing close_aromatic_ring close_aromatic_ring close_aromatic_ring ring_built build_to_Nac build_DB_to_Cs2 build_SB_to_Cs2 build_to_Nd0 close_aliphatic_ring close_aliphatic_ring close_aliphatic_ring close_aliphatic_ring close_aliphatic_ring

>  <prot_clashes>  (692) 
9

>  <NBS phar>  (692) 
0.0

>  <NBS_non-phar>  (692) 
0.48160532116889954

>  <NBS>  (692) 
0.48160532116889954

>  <source_stage>  (692) 
scored

>  <source_iter>  (692) 
13

>  <source_parent_mol>  (692) 
0

>  <source_scenario>  (692) 
1 2 3 1 7 1 0 8 3 0 0 0 0

>  <source_rank_in_scored_call>  (692) 
69

>  <source_current_task>  (692) 
no_task

>  <scenario>  (692) 
1 2 3 1 7 1 0 8 3 0 0 0

>  <protected_ring_attachments>  (692) 
3,1,0,2|1,0,2;4,5,0,2|5,0,2;11,10,9,2|10,9,2;13,14,9,2|14,9,2

>  <current_task>  (692) 
no_task

>  <rotatable_bond_torsions>  (692) 
1,0,2,9;0,2,9,10;0,5,6,8

$$$$

     RDKit          3D

 14 15  0  0  0  0  0  0  0  0999 V2000
  -28.5390   -6.0020  -31.1770 C   0  0  0  0  0  0  0  0  0  0  0  0
  -27.8770   -5.9610  -32.3690 N   0  0  0  0  0  0  0  0  0  0  0  0
  -29.2390   -7.2580  -30.7390 N   0  0  0  0  0  0  0  0  0  0  0  0
  -27.3140   -4.7490  -32.5040 C   0  0  0  0  0  0  0  0  0  0  0  0
  -27.6370   -4.0450  -31.3810 N   0  0  0  0  0  0  0  0  0  0  0  0
  -28.3730   -4.8020  -30.5870 N   0  0  0  0  0  0  0  0  0  0  0  0
  -28.8520   -4.4150  -29.3520 C   0  0  0  0  0  0  0  0  0  0  0  0
  -29.5760   -5.0900  -28.6400 O   0  0  0  0  0  0  0  0  0  0  0  0
  -28.3730   -3.1030  -28.6900 C   0  0  0  0  0  0  0  0  0  0  0  0
  -28.5090   -8.2320  -30.1020 C   0  0  2  0  0  0  0  0  0  0  0  0
  -27.0950   -8.3860  -30.5440 C   0  0  0  0  0  0  0  0  0  0  0  0
  -26.9970   -9.6600  -31.0110 O   0  0  0  0  0  0  0  0  0  0  0  0
  -28.0670  -10.4110  -30.7470 C   0  0  0  0  0  0  0  0  0  0  0  0
  -28.9220   -9.6110  -29.7230 C   0  0  0  0  0  0  0  0  0  0  0  0
  1  2  2  0
  1  3  1  0
  1  6  1  0
  2  4  1  0
 10  3  1  6
  4  5  2  0
  5  6  1  0
  6  7  1  0
  7  9  1  0
  7  8  2  0
 10 11  1  0
 10 14  1  0
 11 12  1  0
 12 13  1  0
 13 14  1  0
M  END
>  <name>  (693) 
Car Nac Nd0 Car Nac Nac Cs2 .=O Cs3 C3r C3r O_a C3r C3r

>  <indices>  (693) 
[0, 1, 2]

>  <tasks>  (693) 
probe_placing close_aromatic_ring close_aromatic_ring close_aromatic_ring ring_built build_to_Nac build_DB_to_Cs2 build_SB_to_Cs2 build_to_Nd0 close_aliphatic_ring close_aliphatic_ring close_aliphatic_ring

>  <prot_clashes>  (693) 
4

>  <NBS phar>  (693) 
0.2

>  <NBS_non-phar>  (693) 
0.33674577304295134

>  <NBS>  (693) 
0.5367457730429513

>  <source_stage>  (693) 
scored

>  <source_iter>  (693) 
11

>  <source_parent_mol>  (693) 
2

>  <source_scenario>  (693) 
1 2 3 1 7 1 0 8 3 0 2

>  <source_rank_in_scored_call>  (693) 
1

>  <source_current_task>  (693) 
close_aliphatic_ring

>  <scenario>  (693) 
1 2 3 1 7 1 0 8 3 0

>  <protected_ring_attachments>  (693) 
3,1,0,2|1,0,2;4,5,0,2|5,0,2

>  <current_task>  (693) 
no_task

>  <rotatable_bond_torsions>  (693) 
1,0,2,9;0,2,9,10;0,5,6,8;2,9,10,11;9,10,11,12

$$$$

     RDKit          3D

 15 16  0  0  0  0  0  0  0  0999 V2000
  -28.5380   -5.7670  -30.6300 C   0  0  0  0  0  0  0  0  0  0  0  0
  -27.9240   -6.0460  -31.8150 N   0  0  0  0  0  0  0  0  0  0  0  0
  -29.1980   -6.8620  -29.8400 N   0  0  0  0  0  0  0  0  0  0  0  0
  -27.3880   -4.9120  -32.2960 C   0  0  0  0  0  0  0  0  0  0  0  0
  -27.6800   -3.9330  -31.3930 N   0  0  0  0  0  0  0  0  0  0  0  0
  -28.3710   -4.4510  -30.3940 N   0  0  0  0  0  0  0  0  0  0  0  0
  -28.8090   -3.7470  -29.2900 C   0  0  0  0  0  0  0  0  0  0  0  0
  -29.4930   -4.2090  -28.3930 O   0  0  0  0  0  0  0  0  0  0  0  0
  -28.3290   -2.3020  -29.0280 C   0  0  0  0  0  0  0  0  0  0  0  0
  -28.4270   -7.6220  -28.9940 C   0  0  2  0  0  0  0  0  0  0  0  0
  -27.0280   -7.8810  -29.4370 C   0  0  0  0  0  0  0  0  0  0  0  0
  -26.9260   -9.2330  -29.5460 O   0  0  0  0  0  0  0  0  0  0  0  0
  -27.9710   -9.8920  -29.0440 C   0  0  0  0  0  0  0  0  0  0  0  0
  -28.8000   -8.8500  -28.2400 C   0  0  0  0  0  0  0  0  0  0  0  0
  -28.1280   -2.0800  -27.5960 C   0  0  0  0  0  0  0  0  0  0  0  0
  1  2  2  0
  1  6  1  0
  1  3  1  0
  2  4  1  0
 10  3  1  6
  4  5  2  0
  5  6  1  0
  6  7  1  0
  7  9  1  0
  7  8  2  0
 10 11  1  0
 10 14  1  0
 11 12  1  0
 12 13  1  0
 13 14  1  0
  9 15  1  0
M  END
>  <name>  (694) 
Car Nac Nd0 Car Nac Nac Cs2 .=O Cs3 C3r C3r O_a C3r C3r Cs3

>  <indices>  (694) 
[0, 1, 2]

>  <tasks>  (694) 
probe_placing close_aromatic_ring close_aromatic_ring close_aromatic_ring ring_built build_to_Nac build_DB_to_Cs2 build_SB_to_Cs2 build_to_Nd0 close_aliphatic_ring close_aliphatic_ring close_aliphatic_ring close_aliphatic_ring

>  <prot_clashes>  (694) 
3

>  <NBS phar>  (694) 
0.2

>  <NBS_non-phar>  (694) 
0.47099167505900064

>  <NBS>  (694) 
0.6709916750590006

>  <source_stage>  (694) 
scored

>  <source_iter>  (694) 
12

>  <source_parent_mol>  (694) 
1

>  <source_scenario>  (694) 
1 2 3 1 7 1 0 8 3 0 2 1

>  <source_rank_in_scored_call>  (694) 
10

>  <source_current_task>  (694) 
no_task

>  <scenario>  (694) 
1 2 3 1 7 1 0 8 3 0 2

>  <protected_ring_attachments>  (694) 
3,1,0,2|1,0,2;4,5,0,2|5,0,2;11,10,9,2|10,9,2;12,13,9,2|13,9,2

>  <current_task>  (694) 
no_task

>  <rotatable_bond_torsions>  (694) 
1,0,2,9;0,2,9,10;0,5,6,8

$$$$

     RDKit          3D

 15 16  0  0  0  0  0  0  0  0999 V2000
  -28.6050   -5.7980  -30.6930 C   0  0  0  0  0  0  0  0  0  0  0  0
  -28.0160   -6.0460  -31.8980 N   0  0  0  0  0  0  0  0  0  0  0  0
  -29.2950   -6.9030  -29.9420 N   0  0  0  0  0  0  0  0  0  0  0  0
  -27.4450   -4.9120  -32.3360 C   0  0  0  0  0  0  0  0  0  0  0  0
  -27.6890   -3.9640  -31.3860 N   0  0  0  0  0  0  0  0  0  0  0  0
  -28.3860   -4.5010  -30.4010 N   0  0  0  0  0  0  0  0  0  0  0  0
  -28.7840   -3.8320  -29.2610 C   0  0  0  0  0  0  0  0  0  0  0  0
  -29.4730   -4.3080  -28.3750 O   0  0  0  0  0  0  0  0  0  0  0  0
  -28.2470   -2.4180  -28.9430 C   0  0  0  0  0  0  0  0  0  0  0  0
  -28.5420   -7.7280  -29.1420 C   0  0  2  0  0  0  0  0  0  0  0  0
  -27.1600   -8.0170  -29.6160 C   0  0  0  0  0  0  0  0  0  0  0  0
  -27.1080   -9.3650  -29.7860 O   0  0  0  0  0  0  0  0  0  0  0  0
  -28.1710  -10.0070  -29.2990 C   0  0  0  0  0  0  0  0  0  0  0  0
  -28.9510   -8.9730  -28.4380 C   0  0  0  0  0  0  0  0  0  0  0  0
  -28.3570   -2.1560  -27.5060 C   0  0  0  0  0  0  0  0  0  0  0  0
  1  2  2  0
  1  6  1  0
  1  3  1  0
  2  4  1  0
 10  3  1  6
  4  5  2  0
  5  6  1  0
  6  7  1  0
  7  9  1  0
  7  8  2  0
 10 11  1  0
 10 14  1  0
 11 12  1  0
 12 13  1  0
 13 14  1  0
  9 15  1  0
M  END
>  <name>  (695) 
Car Nac Nd0 Car Nac Nac Cs2 .=O Cs3 C3r C3r O_a C3r C3r Cs3

>  <indices>  (695) 
[0, 1, 2]

>  <tasks>  (695) 
probe_placing close_aromatic_ring close_aromatic_ring close_aromatic_ring ring_built build_to_Nac build_DB_to_Cs2 build_SB_to_Cs2 build_to_Nd0 close_aliphatic_ring close_aliphatic_ring close_aliphatic_ring close_aliphatic_ring

>  <prot_clashes>  (695) 
4

>  <NBS phar>  (695) 
0.2

>  <NBS_non-phar>  (695) 
0.47045809427897134

>  <NBS>  (695) 
0.6704580942789713

>  <source_stage>  (695) 
scored

>  <source_iter>  (695) 
12

>  <source_parent_mol>  (695) 
1

>  <source_scenario>  (695) 
1 2 3 1 7 1 0 8 3 0 2 1

>  <source_rank_in_scored_call>  (695) 
11

>  <source_current_task>  (695) 
no_task

>  <scenario>  (695) 
1 2 3 1 7 1 0 8 3 0 2

>  <protected_ring_attachments>  (695) 
3,1,0,2|1,0,2;4,5,0,2|5,0,2;11,10,9,2|10,9,2;12,13,9,2|13,9,2

>  <current_task>  (695) 
no_task

>  <rotatable_bond_torsions>  (695) 
1,0,2,9;0,2,9,10;0,5,6,8

$$$$

     RDKit          3D

 15 16  0  0  0  0  0  0  0  0999 V2000
  -28.4890   -5.9770  -31.1070 C   0  0  0  0  0  0  0  0  0  0  0  0
  -27.8990   -5.9550  -32.3370 N   0  0  0  0  0  0  0  0  0  0  0  0
  -29.1880   -7.2160  -30.6220 N   0  0  0  0  0  0  0  0  0  0  0  0
  -27.3190   -4.7560  -32.5110 C   0  0  0  0  0  0  0  0  0  0  0  0
  -27.5590   -4.0410  -31.3740 N   0  0  0  0  0  0  0  0  0  0  0  0
  -28.2620   -4.7790  -30.5340 N   0  0  0  0  0  0  0  0  0  0  0  0
  -28.6570   -4.3770  -29.2740 C   0  0  0  0  0  0  0  0  0  0  0  0
  -29.3510   -5.0340  -28.5170 O   0  0  0  0  0  0  0  0  0  0  0  0
  -28.1110   -3.0740  -28.6480 C   0  0  0  0  0  0  0  0  0  0  0  0
  -28.4420   -8.2030  -30.0250 C   0  0  2  0  0  0  0  0  0  0  0  0
  -27.0610   -8.3900  -30.5510 C   0  0  0  0  0  0  0  0  0  0  0  0
  -27.0190   -9.6670  -31.0170 O   0  0  0  0  0  0  0  0  0  0  0  0
  -28.0870  -10.3940  -30.6850 C   0  0  0  0  0  0  0  0  0  0  0  0
  -28.8610   -9.5720  -29.6150 C   0  0  0  0  0  0  0  0  0  0  0  0
  -29.1840   -2.1730  -28.0950 C   0  0  0  0  0  0  0  0  0  0  0  0
  1  2  2  0
  1  3  1  0
  1  6  1  0
  2  4  1  0
 10  3  1  6
  4  5  2  0
  5  6  1  0
  6  7  1  0
  7  9  1  0
  7  8  2  0
 10 11  1  0
 10 14  1  0
 11 12  1  0
 12 13  1  0
 13 14  1  0
  9 15  1  0
M  END
>  <name>  (696) 
Car Nac Nd0 Car Nac Nac Cs2 .=O Cs3 C3r C3r O_a C3r C3r Cs3

>  <indices>  (696) 
[0, 1, 2]

>  <tasks>  (696) 
probe_placing close_aromatic_ring close_aromatic_ring close_aromatic_ring ring_built build_to_Nac build_DB_to_Cs2 build_SB_to_Cs2 build_to_Nd0 close_aliphatic_ring close_aliphatic_ring close_aliphatic_ring close_aliphatic_ring

>  <prot_clashes>  (696) 
6

>  <NBS phar>  (696) 
0.24000000000000005

>  <NBS_non-phar>  (696) 
0.4188974062601725

>  <NBS>  (696) 
0.6588974062601726

>  <source_stage>  (696) 
scored

>  <source_iter>  (696) 
12

>  <source_parent_mol>  (696) 
1

>  <source_scenario>  (696) 
1 2 3 1 7 1 0 8 3 0 2 1

>  <source_rank_in_scored_call>  (696) 
12

>  <source_current_task>  (696) 
no_task

>  <scenario>  (696) 
1 2 3 1 7 1 0 8 3 0 2

>  <protected_ring_attachments>  (696) 
3,1,0,2|1,0,2;4,5,0,2|5,0,2;11,10,9,2|10,9,2;12,13,9,2|13,9,2

>  <current_task>  (696) 
no_task

>  <rotatable_bond_torsions>  (696) 
1,0,2,9;0,2,9,10;0,5,6,8

$$$$

     RDKit          3D

 15 16  0  0  0  0  0  0  0  0999 V2000
  -28.4980   -5.9720  -31.1250 C   0  0  0  0  0  0  0  0  0  0  0  0
  -27.8900   -5.9460  -32.3460 N   0  0  0  0  0  0  0  0  0  0  0  0
  -29.1940   -7.2160  -30.6480 N   0  0  0  0  0  0  0  0  0  0  0  0
  -27.3170   -4.7420  -32.5130 C   0  0  0  0  0  0  0  0  0  0  0  0
  -27.5790   -4.0280  -31.3810 N   0  0  0  0  0  0  0  0  0  0  0  0
  -28.2890   -4.7710  -30.5500 N   0  0  0  0  0  0  0  0  0  0  0  0
  -28.7060   -4.3710  -29.2970 C   0  0  0  0  0  0  0  0  0  0  0  0
  -29.4060   -5.0330  -28.5490 O   0  0  0  0  0  0  0  0  0  0  0  0
  -28.1790   -3.0630  -28.6650 C   0  0  0  0  0  0  0  0  0  0  0  0
  -28.4490   -8.1970  -30.0400 C   0  0  2  0  0  0  0  0  0  0  0  0
  -27.0580   -8.3720  -30.5450 C   0  0  0  0  0  0  0  0  0  0  0  0
  -26.9990   -9.6500  -31.0080 O   0  0  0  0  0  0  0  0  0  0  0  0
  -28.0660  -10.3850  -30.6920 C   0  0  0  0  0  0  0  0  0  0  0  0
  -28.8630   -9.5680  -29.6350 C   0  0  0  0  0  0  0  0  0  0  0  0
  -29.1860   -1.9530  -28.5700 C   0  0  0  0  0  0  0  0  0  0  0  0
  1  2  2  0
  1  3  1  0
  1  6  1  0
  2  4  1  0
 10  3  1  6
  4  5  2  0
  5  6  1  0
  6  7  1  0
  7  9  1  0
  7  8  2  0
 10 11  1  0
 10 14  1  0
 11 12  1  0
 12 13  1  0
 13 14  1  0
  9 15  1  0
M  END
>  <name>  (697) 
Car Nac Nd0 Car Nac Nac Cs2 .=O Cs3 C3r C3r O_a C3r C3r Cs3

>  <indices>  (697) 
[0, 1, 2]

>  <tasks>  (697) 
probe_placing close_aromatic_ring close_aromatic_ring close_aromatic_ring ring_built build_to_Nac build_DB_to_Cs2 build_SB_to_Cs2 build_to_Nd0 close_aliphatic_ring close_aliphatic_ring close_aliphatic_ring close_aliphatic_ring

>  <prot_clashes>  (697) 
5

>  <NBS phar>  (697) 
0.22000000000000003

>  <NBS_non-phar>  (697) 
0.4382191022237142

>  <NBS>  (697) 
0.6582191022237143

>  <source_stage>  (697) 
scored

>  <source_iter>  (697) 
12

>  <source_parent_mol>  (697) 
1

>  <source_scenario>  (697) 
1 2 3 1 7 1 0 8 3 0 2 1

>  <source_rank_in_scored_call>  (697) 
13

>  <source_current_task>  (697) 
no_task

>  <scenario>  (697) 
1 2 3 1 7 1 0 8 3 0 2

>  <protected_ring_attachments>  (697) 
3,1,0,2|1,0,2;4,5,0,2|5,0,2;11,10,9,2|10,9,2;12,13,9,2|13,9,2

>  <current_task>  (697) 
no_task

>  <rotatable_bond_torsions>  (697) 
1,0,2,9;0,2,9,10;0,5,6,8

$$$$

     RDKit          3D

 15 16  0  0  0  0  0  0  0  0999 V2000
  -28.4880   -5.9690  -31.1060 C   0  0  0  0  0  0  0  0  0  0  0  0
  -27.8970   -5.9470  -32.3360 N   0  0  0  0  0  0  0  0  0  0  0  0
  -29.1870   -7.2090  -30.6220 N   0  0  0  0  0  0  0  0  0  0  0  0
  -27.3170   -4.7470  -32.5090 C   0  0  0  0  0  0  0  0  0  0  0  0
  -27.5580   -4.0330  -31.3720 N   0  0  0  0  0  0  0  0  0  0  0  0
  -28.2610   -4.7710  -30.5330 N   0  0  0  0  0  0  0  0  0  0  0  0
  -28.6580   -4.3700  -29.2730 C   0  0  0  0  0  0  0  0  0  0  0  0
  -29.3530   -5.0270  -28.5160 O   0  0  0  0  0  0  0  0  0  0  0  0
  -28.1120   -3.0670  -28.6460 C   0  0  0  0  0  0  0  0  0  0  0  0
  -28.4420   -8.1960  -30.0250 C   0  0  2  0  0  0  0  0  0  0  0  0
  -27.0600   -8.3820  -30.5490 C   0  0  0  0  0  0  0  0  0  0  0  0
  -27.0170   -9.6590  -31.0150 O   0  0  0  0  0  0  0  0  0  0  0  0
  -28.0850  -10.3860  -30.6850 C   0  0  0  0  0  0  0  0  0  0  0  0
  -28.8610   -9.5650  -29.6160 C   0  0  0  0  0  0  0  0  0  0  0  0
  -29.1850   -2.3080  -27.9310 C   0  0  0  0  0  0  0  0  0  0  0  0
  1  2  2  0
  1  3  1  0
  1  6  1  0
  2  4  1  0
 10  3  1  6
  4  5  2  0
  5  6  1  0
  6  7  1  0
  7  9  1  0
  7  8  2  0
 10 11  1  0
 10 14  1  0
 11 12  1  0
 12 13  1  0
 13 14  1  0
  9 15  1  0
M  END
>  <name>  (698) 
Car Nac Nd0 Car Nac Nac Cs2 .=O Cs3 C3r C3r O_a C3r C3r Cs3

>  <indices>  (698) 
[0, 1, 2]

>  <tasks>  (698) 
probe_placing close_aromatic_ring close_aromatic_ring close_aromatic_ring ring_built build_to_Nac build_DB_to_Cs2 build_SB_to_Cs2 build_to_Nd0 close_aliphatic_ring close_aliphatic_ring close_aliphatic_ring close_aliphatic_ring

>  <prot_clashes>  (698) 
7

>  <NBS phar>  (698) 
0.22000000000000003

>  <NBS_non-phar>  (698) 
0.41276172002156575

>  <NBS>  (698) 
0.6327617200215658

>  <source_stage>  (698) 
scored

>  <source_iter>  (698) 
12

>  <source_parent_mol>  (698) 
1

>  <source_scenario>  (698) 
1 2 3 1 7 1 0 8 3 0 2 1

>  <source_rank_in_scored_call>  (698) 
21

>  <source_current_task>  (698) 
no_task

>  <scenario>  (698) 
1 2 3 1 7 1 0 8 3 0 2

>  <protected_ring_attachments>  (698) 
3,1,0,2|1,0,2;4,5,0,2|5,0,2;11,10,9,2|10,9,2;12,13,9,2|13,9,2

>  <current_task>  (698) 
no_task

>  <rotatable_bond_torsions>  (698) 
1,0,2,9;0,2,9,10;0,5,6,8

$$$$

     RDKit          3D

 15 16  0  0  0  0  0  0  0  0999 V2000
  -28.5100   -5.9650  -31.1500 C   0  0  0  0  0  0  0  0  0  0  0  0
  -27.8800   -5.9350  -32.3590 N   0  0  0  0  0  0  0  0  0  0  0  0
  -29.2080   -7.2140  -30.6870 N   0  0  0  0  0  0  0  0  0  0  0  0
  -27.3110   -4.7280  -32.5140 C   0  0  0  0  0  0  0  0  0  0  0  0
  -27.5970   -4.0170  -31.3860 N   0  0  0  0  0  0  0  0  0  0  0  0
  -28.3180   -4.7640  -30.5690 N   0  0  0  0  0  0  0  0  0  0  0  0
  -28.7600   -4.3690  -29.3230 C   0  0  0  0  0  0  0  0  0  0  0  0
  -29.4700   -5.0350  -28.5890 O   0  0  0  0  0  0  0  0  0  0  0  0
  -28.2520   -3.0580  -28.6800 C   0  0  0  0  0  0  0  0  0  0  0  0
  -28.4690   -8.1910  -30.0660 C   0  0  2  0  0  0  0  0  0  0  0  0
  -27.0690   -8.3590  -30.5460 C   0  0  0  0  0  0  0  0  0  0  0  0
  -26.9940   -9.6350  -31.0100 O   0  0  0  0  0  0  0  0  0  0  0  0
  -28.0630  -10.3760  -30.7140 C   0  0  0  0  0  0  0  0  0  0  0  0
  -28.8830   -9.5650  -29.6710 C   0  0  0  0  0  0  0  0  0  0  0  0
  -29.1690   -2.4340  -27.6520 C   0  0  0  0  0  0  0  0  0  0  0  0
  1  2  2  0
  1  3  1  0
  1  6  1  0
  2  4  1  0
 10  3  1  6
  4  5  2  0
  5  6  1  0
  6  7  1  0
  7  9  1  0
  7  8  2  0
 10 11  1  0
 10 14  1  0
 11 12  1  0
 12 13  1  0
 13 14  1  0
  9 15  1  0
M  END
>  <name>  (699) 
Car Nac Nd0 Car Nac Nac Cs2 .=O Cs3 C3r C3r O_a C3r C3r Cs3

>  <indices>  (699) 
[0, 1, 2]

>  <tasks>  (699) 
probe_placing close_aromatic_ring close_aromatic_ring close_aromatic_ring ring_built build_to_Nac build_DB_to_Cs2 build_SB_to_Cs2 build_to_Nd0 close_aliphatic_ring close_aliphatic_ring close_aliphatic_ring close_aliphatic_ring

>  <prot_clashes>  (699) 
8

>  <NBS phar>  (699) 
0.24000000000000005

>  <NBS_non-phar>  (699) 
0.3914168357849121

>  <NBS>  (699) 
0.6314168357849121

>  <source_stage>  (699) 
scored

>  <source_iter>  (699) 
12

>  <source_parent_mol>  (699) 
1

>  <source_scenario>  (699) 
1 2 3 1 7 1 0 8 3 0 2 1

>  <source_rank_in_scored_call>  (699) 
23

>  <source_current_task>  (699) 
no_task

>  <scenario>  (699) 
1 2 3 1 7 1 0 8 3 0 2

>  <protected_ring_attachments>  (699) 
3,1,0,2|1,0,2;4,5,0,2|5,0,2;11,10,9,2|10,9,2;12,13,9,2|13,9,2

>  <current_task>  (699) 
no_task

>  <rotatable_bond_torsions>  (699) 
1,0,2,9;0,2,9,10;0,5,6,8

$$$$

     RDKit          3D

 15 16  0  0  0  0  0  0  0  0999 V2000
  -28.6280   -5.6690  -30.5910 C   0  0  0  0  0  0  0  0  0  0  0  0
  -28.0340   -5.8580  -31.8040 N   0  0  0  0  0  0  0  0  0  0  0  0
  -29.3050   -6.8130  -29.8890 N   0  0  0  0  0  0  0  0  0  0  0  0
  -27.4770   -4.6990  -32.1930 C   0  0  0  0  0  0  0  0  0  0  0  0
  -27.7340   -3.7950  -31.2040 N   0  0  0  0  0  0  0  0  0  0  0  0
  -28.4260   -4.3820  -30.2440 N   0  0  0  0  0  0  0  0  0  0  0  0
  -28.8340   -3.7670  -29.0780 C   0  0  0  0  0  0  0  0  0  0  0  0
  -29.5180   -4.2890  -28.2140 O   0  0  0  0  0  0  0  0  0  0  0  0
  -28.3150   -2.3610  -28.6990 C   0  0  0  0  0  0  0  0  0  0  0  0
  -28.5420   -7.6610  -29.1230 C   0  0  2  0  0  0  0  0  0  0  0  0
  -27.1560   -7.9120  -29.6060 C   0  0  0  0  0  0  0  0  0  0  0  0
  -27.0870   -9.2520  -29.8330 O   0  0  0  0  0  0  0  0  0  0  0  0
  -28.1420   -9.9270  -29.3750 C   0  0  0  0  0  0  0  0  0  0  0  0
  -28.9360   -8.9400  -28.4720 C   0  0  0  0  0  0  0  0  0  0  0  0
  -28.7620   -1.8940  -27.3510 C   0  0  0  0  0  0  0  0  0  0  0  0
  1  2  2  0
  1  6  1  0
  1  3  1  0
  2  4  1  0
 10  3  1  6
  4  5  2  0
  5  6  1  0
  6  7  1  0
  7  9  1  0
  7  8  2  0
 10 11  1  0
 10 14  1  0
 11 12  1  0
 12 13  1  0
 13 14  1  0
  9 15  1  0
M  END
>  <name>  (700) 
Car Nac Nd0 Car Nac Nac Cs2 .=O Cs3 C3r C3r O_a C3r C3r Cs3

>  <indices>  (700) 
[0, 1, 2]

>  <tasks>  (700) 
probe_placing close_aromatic_ring close_aromatic_ring close_aromatic_ring ring_built build_to_Nac build_DB_to_Cs2 build_SB_to_Cs2 build_to_Nd0 close_aliphatic_ring close_aliphatic_ring close_aliphatic_ring close_aliphatic_ring

>  <prot_clashes>  (700) 
5

>  <NBS phar>  (700) 
0.1

>  <NBS_non-phar>  (700) 
0.5180539766947428

>  <NBS>  (700) 
0.6180539766947428

>  <source_stage>  (700) 
scored

>  <source_iter>  (700) 
12

>  <source_parent_mol>  (700) 
1

>  <source_scenario>  (700) 
1 2 3 1 7 1 0 8 3 0 2 1

>  <source_rank_in_scored_call>  (700) 
26

>  <source_current_task>  (700) 
no_task

>  <scenario>  (700) 
1 2 3 1 7 1 0 8 3 0 2

>  <protected_ring_attachments>  (700) 
3,1,0,2|1,0,2;4,5,0,2|5,0,2;11,10,9,2|10,9,2;12,13,9,2|13,9,2

>  <current_task>  (700) 
no_task

>  <rotatable_bond_torsions>  (700) 
1,0,2,9;0,2,9,10;0,5,6,8

$$$$

     RDKit          3D

 15 16  0  0  0  0  0  0  0  0999 V2000
  -28.5600   -5.8930  -31.0260 C   0  0  0  0  0  0  0  0  0  0  0  0
  -27.9240   -5.9910  -32.2300 N   0  0  0  0  0  0  0  0  0  0  0  0
  -29.2500   -7.0890  -30.4330 N   0  0  0  0  0  0  0  0  0  0  0  0
  -27.3640   -4.8040  -32.5150 C   0  0  0  0  0  0  0  0  0  0  0  0
  -27.6610   -3.9750  -31.4720 N   0  0  0  0  0  0  0  0  0  0  0  0
  -28.3800   -4.6340  -30.5810 N   0  0  0  0  0  0  0  0  0  0  0  0
  -28.8310   -4.1080  -29.3880 C   0  0  0  0  0  0  0  0  0  0  0  0
  -29.5390   -4.6950  -28.5880 O   0  0  0  0  0  0  0  0  0  0  0  0
  -28.3370   -2.7300  -28.8910 C   0  0  0  0  0  0  0  0  0  0  0  0
  -28.5060   -7.9860  -29.7050 C   0  0  2  0  0  0  0  0  0  0  0  0
  -27.1030   -8.1940  -30.1580 C   0  0  0  0  0  0  0  0  0  0  0  0
  -27.0160   -9.5130  -30.4780 O   0  0  0  0  0  0  0  0  0  0  0  0
  -28.0800  -10.2260  -30.1070 C   0  0  0  0  0  0  0  0  0  0  0  0
  -28.9120   -9.3120  -29.1620 C   0  0  0  0  0  0  0  0  0  0  0  0
  -27.4750   -2.8220  -27.6600 C   0  0  0  0  0  0  0  0  0  0  0  0
  1  2  2  0
  1  6  1  0
  1  3  1  0
  2  4  1  0
 10  3  1  6
  4  5  2  0
  5  6  1  0
  6  7  1  0
  7  9  1  0
  7  8  2  0
 10 11  1  0
 10 14  1  0
 11 12  1  0
 12 13  1  0
 13 14  1  0
  9 15  1  0
M  END
>  <name>  (701) 
Car Nac Nd0 Car Nac Nac Cs2 .=O Cs3 C3r C3r O_a C3r C3r Cs3

>  <indices>  (701) 
[0, 1, 2]

>  <tasks>  (701) 
probe_placing close_aromatic_ring close_aromatic_ring close_aromatic_ring ring_built build_to_Nac build_DB_to_Cs2 build_SB_to_Cs2 build_to_Nd0 close_aliphatic_ring close_aliphatic_ring close_aliphatic_ring close_aliphatic_ring

>  <prot_clashes>  (701) 
6

>  <NBS phar>  (701) 
0.2

>  <NBS_non-phar>  (701) 
0.3967387835184733

>  <NBS>  (701) 
0.5967387835184733

>  <source_stage>  (701) 
scored

>  <source_iter>  (701) 
12

>  <source_parent_mol>  (701) 
1

>  <source_scenario>  (701) 
1 2 3 1 7 1 0 8 3 0 2 1

>  <source_rank_in_scored_call>  (701) 
38

>  <source_current_task>  (701) 
no_task

>  <scenario>  (701) 
1 2 3 1 7 1 0 8 3 0 2

>  <protected_ring_attachments>  (701) 
3,1,0,2|1,0,2;4,5,0,2|5,0,2;11,10,9,2|10,9,2;12,13,9,2|13,9,2

>  <current_task>  (701) 
no_task

>  <rotatable_bond_torsions>  (701) 
1,0,2,9;0,2,9,10;0,5,6,8

$$$$

     RDKit          3D

 15 16  0  0  0  0  0  0  0  0999 V2000
  -28.5730   -5.8800  -31.0840 C   0  0  0  0  0  0  0  0  0  0  0  0
  -27.8850   -5.9510  -32.2600 N   0  0  0  0  0  0  0  0  0  0  0  0
  -29.2710   -7.0930  -30.5370 N   0  0  0  0  0  0  0  0  0  0  0  0
  -27.3300   -4.7520  -32.5040 C   0  0  0  0  0  0  0  0  0  0  0  0
  -27.6850   -3.9430  -31.4640 N   0  0  0  0  0  0  0  0  0  0  0  0
  -28.4310   -4.6250  -30.6140 N   0  0  0  0  0  0  0  0  0  0  0  0
  -28.9420   -4.1210  -29.4350 C   0  0  0  0  0  0  0  0  0  0  0  0
  -29.6750   -4.7300  -28.6750 O   0  0  0  0  0  0  0  0  0  0  0  0
  -28.4900   -2.7440  -28.8980 C   0  0  0  0  0  0  0  0  0  0  0  0
  -28.5470   -7.9900  -29.7900 C   0  0  2  0  0  0  0  0  0  0  0  0
  -27.1220   -8.1710  -30.1840 C   0  0  0  0  0  0  0  0  0  0  0  0
  -27.0010   -9.4850  -30.5180 O   0  0  0  0  0  0  0  0  0  0  0  0
  -28.0700  -10.2180  -30.2030 C   0  0  0  0  0  0  0  0  0  0  0  0
  -28.9550   -9.3290  -29.2840 C   0  0  0  0  0  0  0  0  0  0  0  0
  -27.3100   -2.8690  -27.9460 C   0  0  0  0  0  0  0  0  0  0  0  0
  1  2  2  0
  1  6  1  0
  1  3  1  0
  2  4  1  0
 10  3  1  6
  4  5  2  0
  5  6  1  0
  6  7  1  0
  7  9  1  0
  7  8  2  0
 10 11  1  0
 10 14  1  0
 11 12  1  0
 12 13  1  0
 13 14  1  0
  9 15  1  0
M  END
>  <name>  (702) 
Car Nac Nd0 Car Nac Nac Cs2 .=O Cs3 C3r C3r O_a C3r C3r Cs3

>  <indices>  (702) 
[0, 1, 2]

>  <tasks>  (702) 
probe_placing close_aromatic_ring close_aromatic_ring close_aromatic_ring ring_built build_to_Nac build_DB_to_Cs2 build_SB_to_Cs2 build_to_Nd0 close_aliphatic_ring close_aliphatic_ring close_aliphatic_ring close_aliphatic_ring

>  <prot_clashes>  (702) 
7

>  <NBS phar>  (702) 
0.2

>  <NBS_non-phar>  (702) 
0.3902398427327474

>  <NBS>  (702) 
0.5902398427327474

>  <source_stage>  (702) 
scored

>  <source_iter>  (702) 
12

>  <source_parent_mol>  (702) 
1

>  <source_scenario>  (702) 
1 2 3 1 7 1 0 8 3 0 2 1

>  <source_rank_in_scored_call>  (702) 
39

>  <source_current_task>  (702) 
no_task

>  <scenario>  (702) 
1 2 3 1 7 1 0 8 3 0 2

>  <protected_ring_attachments>  (702) 
3,1,0,2|1,0,2;4,5,0,2|5,0,2;11,10,9,2|10,9,2;12,13,9,2|13,9,2

>  <current_task>  (702) 
no_task

>  <rotatable_bond_torsions>  (702) 
1,0,2,9;0,2,9,10;0,5,6,8

$$$$

     RDKit          3D

 15 16  0  0  0  0  0  0  0  0999 V2000
  -28.5650   -5.9810  -31.1950 C   0  0  0  0  0  0  0  0  0  0  0  0
  -27.8180   -5.9290  -32.3360 N   0  0  0  0  0  0  0  0  0  0  0  0
  -29.2660   -7.2520  -30.8040 N   0  0  0  0  0  0  0  0  0  0  0  0
  -27.2740   -4.7050  -32.4350 C   0  0  0  0  0  0  0  0  0  0  0  0
  -27.6950   -4.0050  -31.3420 N   0  0  0  0  0  0  0  0  0  0  0  0
  -28.4700   -4.7760  -30.6010 N   0  0  0  0  0  0  0  0  0  0  0  0
  -29.0470   -4.3960  -29.4060 C   0  0  0  0  0  0  0  0  0  0  0  0
  -29.8060   -5.0850  -28.7460 O   0  0  0  0  0  0  0  0  0  0  0  0
  -28.6480   -3.0710  -28.7170 C   0  0  0  0  0  0  0  0  0  0  0  0
  -28.5630   -8.2070  -30.1100 C   0  0  2  0  0  0  0  0  0  0  0  0
  -27.1170   -8.3290  -30.4460 C   0  0  0  0  0  0  0  0  0  0  0  0
  -26.9560   -9.6020  -30.8990 O   0  0  0  0  0  0  0  0  0  0  0  0
  -28.0250  -10.3770  -30.7100 C   0  0  0  0  0  0  0  0  0  0  0  0
  -28.9710   -9.5940  -29.7560 C   0  0  0  0  0  0  0  0  0  0  0  0
  -27.3140   -3.0790  -28.0290 C   0  0  0  0  0  0  0  0  0  0  0  0
  1  2  2  0
  1  3  1  0
  1  6  1  0
  2  4  1  0
 10  3  1  6
  4  5  2  0
  5  6  1  0
  6  7  1  0
  7  8  2  0
  7  9  1  0
 10 11  1  0
 10 14  1  0
 11 12  1  0
 12 13  1  0
 13 14  1  0
  9 15  1  0
M  END
>  <name>  (703) 
Car Nac Nd0 Car Nac Nac Cs2 .=O Cs3 C3r C3r O_a C3r C3r Cs3

>  <indices>  (703) 
[0, 1, 2]

>  <tasks>  (703) 
probe_placing close_aromatic_ring close_aromatic_ring close_aromatic_ring ring_built build_to_Nac build_DB_to_Cs2 build_SB_to_Cs2 build_to_Nd0 close_aliphatic_ring close_aliphatic_ring close_aliphatic_ring close_aliphatic_ring

>  <prot_clashes>  (703) 
7

>  <NBS phar>  (703) 
0.2

>  <NBS_non-phar>  (703) 
0.37321554819742836

>  <NBS>  (703) 
0.5732155481974284

>  <source_stage>  (703) 
scored

>  <source_iter>  (703) 
12

>  <source_parent_mol>  (703) 
1

>  <source_scenario>  (703) 
1 2 3 1 7 1 0 8 3 0 2 1

>  <source_rank_in_scored_call>  (703) 
54

>  <source_current_task>  (703) 
no_task

>  <scenario>  (703) 
1 2 3 1 7 1 0 8 3 0 2

>  <protected_ring_attachments>  (703) 
3,1,0,2|1,0,2;4,5,0,2|5,0,2;11,10,9,2|10,9,2;12,13,9,2|13,9,2

>  <current_task>  (703) 
no_task

>  <rotatable_bond_torsions>  (703) 
1,0,2,9;0,2,9,10;0,5,6,8

$$$$

     RDKit          3D

 15 16  0  0  0  0  0  0  0  0999 V2000
  -28.5350   -5.9950  -31.1780 C   0  0  0  0  0  0  0  0  0  0  0  0
  -27.8760   -5.9560  -32.3720 N   0  0  0  0  0  0  0  0  0  0  0  0
  -29.2340   -7.2500  -30.7360 N   0  0  0  0  0  0  0  0  0  0  0  0
  -27.3130   -4.7440  -32.5100 C   0  0  0  0  0  0  0  0  0  0  0  0
  -27.6330   -4.0380  -31.3870 N   0  0  0  0  0  0  0  0  0  0  0  0
  -28.3660   -4.7940  -30.5900 N   0  0  0  0  0  0  0  0  0  0  0  0
  -28.8420   -4.4060  -29.3540 C   0  0  0  0  0  0  0  0  0  0  0  0
  -29.5640   -5.0790  -28.6390 O   0  0  0  0  0  0  0  0  0  0  0  0
  -28.3600   -3.0930  -28.6950 C   0  0  0  0  0  0  0  0  0  0  0  0
  -28.5020   -8.2240  -30.1010 C   0  0  2  0  0  0  0  0  0  0  0  0
  -27.0900   -8.3790  -30.5470 C   0  0  0  0  0  0  0  0  0  0  0  0
  -26.9940   -9.6530  -31.0120 O   0  0  0  0  0  0  0  0  0  0  0  0
  -28.0630  -10.4040  -30.7440 C   0  0  0  0  0  0  0  0  0  0  0  0
  -28.9150   -9.6020  -29.7190 C   0  0  0  0  0  0  0  0  0  0  0  0
  -28.7990   -1.8870  -29.5460 C   0  0  0  0  0  0  0  0  0  0  0  0
  1  2  2  0
  1  3  1  0
  1  6  1  0
  2  4  1  0
 10  3  1  6
  4  5  2  0
  5  6  1  0
  6  7  1  0
  7  9  1  0
  7  8  2  0
 10 11  1  0
 10 14  1  0
 11 12  1  0
 12 13  1  0
 13 14  1  0
  9 15  1  0
M  END
>  <name>  (704) 
Car Nac Nd0 Car Nac Nac Cs2 .=O Cs3 C3r C3r O_a C3r C3r Cs3

>  <indices>  (704) 
[0, 1, 2]

>  <tasks>  (704) 
probe_placing close_aromatic_ring close_aromatic_ring close_aromatic_ring ring_built build_to_Nac build_DB_to_Cs2 build_SB_to_Cs2 build_to_Nd0 close_aliphatic_ring close_aliphatic_ring close_aliphatic_ring close_aliphatic_ring

>  <prot_clashes>  (704) 
4

>  <NBS phar>  (704) 
0.2

>  <NBS_non-phar>  (704) 
0.354455820719401

>  <NBS>  (704) 
0.554455820719401

>  <source_stage>  (704) 
scored

>  <source_iter>  (704) 
12

>  <source_parent_mol>  (704) 
1

>  <source_scenario>  (704) 
1 2 3 1 7 1 0 8 3 0 2 1

>  <source_rank_in_scored_call>  (704) 
68

>  <source_current_task>  (704) 
no_task

>  <scenario>  (704) 
1 2 3 1 7 1 0 8 3 0 2

>  <protected_ring_attachments>  (704) 
3,1,0,2|1,0,2;4,5,0,2|5,0,2;11,10,9,2|10,9,2;12,13,9,2|13,9,2

>  <current_task>  (704) 
no_task

>  <rotatable_bond_torsions>  (704) 
1,0,2,9;0,2,9,10;0,5,6,8

$$$$

     RDKit          3D

 15 16  0  0  0  0  0  0  0  0999 V2000
  -28.5350   -5.9960  -31.1790 C   0  0  0  0  0  0  0  0  0  0  0  0
  -27.8760   -5.9570  -32.3730 N   0  0  0  0  0  0  0  0  0  0  0  0
  -29.2340   -7.2510  -30.7380 N   0  0  0  0  0  0  0  0  0  0  0  0
  -27.3130   -4.7450  -32.5110 C   0  0  0  0  0  0  0  0  0  0  0  0
  -27.6330   -4.0400  -31.3880 N   0  0  0  0  0  0  0  0  0  0  0  0
  -28.3660   -4.7960  -30.5910 N   0  0  0  0  0  0  0  0  0  0  0  0
  -28.8420   -4.4070  -29.3550 C   0  0  0  0  0  0  0  0  0  0  0  0
  -29.5640   -5.0810  -28.6400 O   0  0  0  0  0  0  0  0  0  0  0  0
  -28.3600   -3.0940  -28.6960 C   0  0  0  0  0  0  0  0  0  0  0  0
  -28.5020   -8.2250  -30.1020 C   0  0  2  0  0  0  0  0  0  0  0  0
  -27.0900   -8.3800  -30.5480 C   0  0  0  0  0  0  0  0  0  0  0  0
  -26.9940   -9.6550  -31.0140 O   0  0  0  0  0  0  0  0  0  0  0  0
  -28.0630  -10.4050  -30.7460 C   0  0  0  0  0  0  0  0  0  0  0  0
  -28.9150   -9.6030  -29.7200 C   0  0  0  0  0  0  0  0  0  0  0  0
  -28.8620   -1.8290  -29.4570 C   0  0  0  0  0  0  0  0  0  0  0  0
  1  2  2  0
  1  3  1  0
  1  6  1  0
  2  4  1  0
 10  3  1  6
  4  5  2  0
  5  6  1  0
  6  7  1  0
  7  9  1  0
  7  8  2  0
 10 11  1  0
 10 14  1  0
 11 12  1  0
 12 13  1  0
 13 14  1  0
  9 15  1  0
M  END
>  <name>  (705) 
Car Nac Nd0 Car Nac Nac Cs2 .=O Cs3 C3r C3r O_a C3r C3r Cs3

>  <indices>  (705) 
[0, 1, 2]

>  <tasks>  (705) 
probe_placing close_aromatic_ring close_aromatic_ring close_aromatic_ring ring_built build_to_Nac build_DB_to_Cs2 build_SB_to_Cs2 build_to_Nd0 close_aliphatic_ring close_aliphatic_ring close_aliphatic_ring close_aliphatic_ring

>  <prot_clashes>  (705) 
4

>  <NBS phar>  (705) 
0.2

>  <NBS_non-phar>  (705) 
0.3510078112284342

>  <NBS>  (705) 
0.5510078112284342

>  <source_stage>  (705) 
scored

>  <source_iter>  (705) 
12

>  <source_parent_mol>  (705) 
1

>  <source_scenario>  (705) 
1 2 3 1 7 1 0 8 3 0 2 1

>  <source_rank_in_scored_call>  (705) 
69

>  <source_current_task>  (705) 
no_task

>  <scenario>  (705) 
1 2 3 1 7 1 0 8 3 0 2

>  <protected_ring_attachments>  (705) 
3,1,0,2|1,0,2;4,5,0,2|5,0,2;11,10,9,2|10,9,2;12,13,9,2|13,9,2

>  <current_task>  (705) 
no_task

>  <rotatable_bond_torsions>  (705) 
1,0,2,9;0,2,9,10;0,5,6,8

$$$$

     RDKit          3D

 15 16  0  0  0  0  0  0  0  0999 V2000
  -28.5350   -5.9970  -31.1790 C   0  0  0  0  0  0  0  0  0  0  0  0
  -27.8760   -5.9580  -32.3730 N   0  0  0  0  0  0  0  0  0  0  0  0
  -29.2340   -7.2520  -30.7370 N   0  0  0  0  0  0  0  0  0  0  0  0
  -27.3130   -4.7470  -32.5120 C   0  0  0  0  0  0  0  0  0  0  0  0
  -27.6320   -4.0410  -31.3890 N   0  0  0  0  0  0  0  0  0  0  0  0
  -28.3660   -4.7960  -30.5910 N   0  0  0  0  0  0  0  0  0  0  0  0
  -28.8410   -4.4070  -29.3560 C   0  0  0  0  0  0  0  0  0  0  0  0
  -29.5630   -5.0810  -28.6400 O   0  0  0  0  0  0  0  0  0  0  0  0
  -28.3590   -3.0940  -28.6970 C   0  0  0  0  0  0  0  0  0  0  0  0
  -28.5020   -8.2250  -30.1000 C   0  0  2  0  0  0  0  0  0  0  0  0
  -27.0900   -8.3810  -30.5470 C   0  0  0  0  0  0  0  0  0  0  0  0
  -26.9940   -9.6560  -31.0120 O   0  0  0  0  0  0  0  0  0  0  0  0
  -28.0630  -10.4060  -30.7430 C   0  0  0  0  0  0  0  0  0  0  0  0
  -28.9150   -9.6040  -29.7180 C   0  0  0  0  0  0  0  0  0  0  0  0
  -28.8600   -1.9100  -29.5180 C   0  0  0  0  0  0  0  0  0  0  0  0
  1  2  2  0
  1  3  1  0
  1  6  1  0
  2  4  1  0
 10  3  1  6
  4  5  2  0
  5  6  1  0
  6  7  1  0
  7  9  1  0
  7  8  2  0
 10 11  1  0
 10 14  1  0
 11 12  1  0
 12 13  1  0
 13 14  1  0
  9 15  1  0
M  END
>  <name>  (706) 
Car Nac Nd0 Car Nac Nac Cs2 .=O Cs3 C3r C3r O_a C3r C3r Cs3

>  <indices>  (706) 
[0, 1, 2]

>  <tasks>  (706) 
probe_placing close_aromatic_ring close_aromatic_ring close_aromatic_ring ring_built build_to_Nac build_DB_to_Cs2 build_SB_to_Cs2 build_to_Nd0 close_aliphatic_ring close_aliphatic_ring close_aliphatic_ring close_aliphatic_ring

>  <prot_clashes>  (706) 
4

>  <NBS phar>  (706) 
0.2

>  <NBS_non-phar>  (706) 
0.3490711212158203

>  <NBS>  (706) 
0.5490711212158204

>  <source_stage>  (706) 
scored

>  <source_iter>  (706) 
12

>  <source_parent_mol>  (706) 
1

>  <source_scenario>  (706) 
1 2 3 1 7 1 0 8 3 0 2 1

>  <source_rank_in_scored_call>  (706) 
71

>  <source_current_task>  (706) 
no_task

>  <scenario>  (706) 
1 2 3 1 7 1 0 8 3 0 2

>  <protected_ring_attachments>  (706) 
3,1,0,2|1,0,2;4,5,0,2|5,0,2;11,10,9,2|10,9,2;12,13,9,2|13,9,2

>  <current_task>  (706) 
no_task

>  <rotatable_bond_torsions>  (706) 
1,0,2,9;0,2,9,10;0,5,6,8

$$$$

     RDKit          3D

 15 16  0  0  0  0  0  0  0  0999 V2000
  -28.5350   -5.9840  -31.1790 C   0  0  0  0  0  0  0  0  0  0  0  0
  -27.8770   -5.9440  -32.3730 N   0  0  0  0  0  0  0  0  0  0  0  0
  -29.2340   -7.2390  -30.7380 N   0  0  0  0  0  0  0  0  0  0  0  0
  -27.3140   -4.7330  -32.5110 C   0  0  0  0  0  0  0  0  0  0  0  0
  -27.6340   -4.0270  -31.3880 N   0  0  0  0  0  0  0  0  0  0  0  0
  -28.3670   -4.7830  -30.5910 N   0  0  0  0  0  0  0  0  0  0  0  0
  -28.8430   -4.3950  -29.3550 C   0  0  0  0  0  0  0  0  0  0  0  0
  -29.5650   -5.0690  -28.6400 O   0  0  0  0  0  0  0  0  0  0  0  0
  -28.3620   -3.0820  -28.6960 C   0  0  0  0  0  0  0  0  0  0  0  0
  -28.5020   -8.2130  -30.1020 C   0  0  2  0  0  0  0  0  0  0  0  0
  -27.0900   -8.3670  -30.5480 C   0  0  0  0  0  0  0  0  0  0  0  0
  -26.9930   -9.6420  -31.0140 O   0  0  0  0  0  0  0  0  0  0  0  0
  -28.0630  -10.3930  -30.7460 C   0  0  0  0  0  0  0  0  0  0  0  0
  -28.9150   -9.5910  -29.7200 C   0  0  0  0  0  0  0  0  0  0  0  0
  -28.2690   -1.8820  -29.6410 C   0  0  0  0  0  0  0  0  0  0  0  0
  1  2  2  0
  1  3  1  0
  1  6  1  0
  2  4  1  0
 10  3  1  6
  4  5  2  0
  5  6  1  0
  6  7  1  0
  7  9  1  0
  7  8  2  0
 10 11  1  0
 10 14  1  0
 11 12  1  0
 12 13  1  0
 13 14  1  0
  9 15  1  0
M  END
>  <name>  (707) 
Car Nac Nd0 Car Nac Nac Cs2 .=O Cs3 C3r C3r O_a C3r C3r Cs3

>  <indices>  (707) 
[0, 1, 2]

>  <tasks>  (707) 
probe_placing close_aromatic_ring close_aromatic_ring close_aromatic_ring ring_built build_to_Nac build_DB_to_Cs2 build_SB_to_Cs2 build_to_Nd0 close_aliphatic_ring close_aliphatic_ring close_aliphatic_ring close_aliphatic_ring

>  <prot_clashes>  (707) 
4

>  <NBS phar>  (707) 
0.2

>  <NBS_non-phar>  (707) 
0.34727484385172525

>  <NBS>  (707) 
0.5472748438517252

>  <source_stage>  (707) 
scored

>  <source_iter>  (707) 
12

>  <source_parent_mol>  (707) 
1

>  <source_scenario>  (707) 
1 2 3 1 7 1 0 8 3 0 2 1

>  <source_rank_in_scored_call>  (707) 
73

>  <source_current_task>  (707) 
no_task

>  <scenario>  (707) 
1 2 3 1 7 1 0 8 3 0 2

>  <protected_ring_attachments>  (707) 
3,1,0,2|1,0,2;4,5,0,2|5,0,2;11,10,9,2|10,9,2;12,13,9,2|13,9,2

>  <current_task>  (707) 
no_task

>  <rotatable_bond_torsions>  (707) 
1,0,2,9;0,2,9,10;0,5,6,8

$$$$

     RDKit          3D

 14 15  0  0  0  0  0  0  0  0999 V2000
  -28.5270   -6.0640  -30.7080 C   0  0  0  0  0  0  0  0  0  0  0  0
  -27.8290   -6.2900  -31.8570 N   0  0  0  0  0  0  0  0  0  0  0  0
  -29.1830   -7.2030  -29.9800 N   0  0  0  0  0  0  0  0  0  0  0  0
  -27.3150   -5.1230  -32.2840 C   0  0  0  0  0  0  0  0  0  0  0  0
  -27.7070   -4.1770  -31.3840 N   0  0  0  0  0  0  0  0  0  0  0  0
  -28.4340   -4.7460  -30.4380 N   0  0  0  0  0  0  0  0  0  0  0  0
  -28.9710   -4.0860  -29.3520 C   0  0  0  0  0  0  0  0  0  0  0  0
  -29.6850   -4.5960  -28.5060 O   0  0  0  0  0  0  0  0  0  0  0  0
  -28.5730   -2.6250  -29.0350 C   0  0  0  0  0  0  0  0  0  0  0  0
  -28.4270   -7.9780  -29.0270 C   0  0  1  0  0  0  0  0  0  0  0  0
  -26.9910   -7.9820  -29.4970 C   0  0  0  0  0  0  0  0  0  0  0  0
  -26.3040   -8.8580  -28.7370 O   0  0  0  0  0  0  0  0  0  0  0  0
  -27.0460   -9.2340  -27.6390 C   0  0  0  0  0  0  0  0  0  0  0  0
  -28.2650   -8.3630  -27.5820 C   0  0  0  0  0  0  0  0  0  0  0  0
  1  2  2  0
  1  6  1  0
  1  3  1  0
  2  4  1  0
 10  3  1  1
  4  5  2  0
  5  6  1  0
  6  7  1  0
  7  9  1  0
  7  8  2  0
 10 11  1  0
 10 14  1  0
 11 12  1  0
 12 13  1  0
 13 14  1  0
M  END
>  <name>  (708) 
Car Nac Nd0 Car Nac Nac Cs2 .=O Cs3 C3r C3r O_a C3r C3r

>  <indices>  (708) 
[0, 1, 2]

>  <tasks>  (708) 
probe_placing close_aromatic_ring close_aromatic_ring close_aromatic_ring ring_built build_to_Nac build_DB_to_Cs2 build_SB_to_Cs2 build_to_Nd0 close_aliphatic_ring close_aliphatic_ring close_aliphatic_ring

>  <prot_clashes>  (708) 
3

>  <NBS phar>  (708) 
0.2

>  <NBS_non-phar>  (708) 
0.540393590927124

>  <NBS>  (708) 
0.740393590927124

>  <source_stage>  (708) 
scored

>  <source_iter>  (708) 
11

>  <source_parent_mol>  (708) 
2

>  <source_scenario>  (708) 
1 2 3 1 7 1 0 8 3 1 2

>  <source_rank_in_scored_call>  (708) 
1

>  <source_current_task>  (708) 
close_aliphatic_ring

>  <scenario>  (708) 
1 2 3 1 7 1 0 8 3 1

>  <protected_ring_attachments>  (708) 
3,1,0,2|1,0,2;4,5,0,2|5,0,2

>  <current_task>  (708) 
no_task

>  <rotatable_bond_torsions>  (708) 
1,0,2,9;0,2,9,10;0,5,6,8;2,9,10,11;9,10,11,12

$$$$

     RDKit          3D

 15 16  0  0  0  0  0  0  0  0999 V2000
  -28.5300   -6.0620  -30.7080 C   0  0  0  0  0  0  0  0  0  0  0  0
  -27.8290   -6.2860  -31.8550 N   0  0  0  0  0  0  0  0  0  0  0  0
  -29.1880   -7.2010  -29.9830 N   0  0  0  0  0  0  0  0  0  0  0  0
  -27.3140   -5.1190  -32.2790 C   0  0  0  0  0  0  0  0  0  0  0  0
  -27.7080   -4.1740  -31.3790 N   0  0  0  0  0  0  0  0  0  0  0  0
  -28.4380   -4.7440  -30.4360 N   0  0  0  0  0  0  0  0  0  0  0  0
  -28.9780   -4.0850  -29.3510 C   0  0  0  0  0  0  0  0  0  0  0  0
  -29.6950   -4.5960  -28.5080 O   0  0  0  0  0  0  0  0  0  0  0  0
  -28.5810   -2.6250  -29.0310 C   0  0  0  0  0  0  0  0  0  0  0  0
  -28.4350   -7.9780  -29.0290 C   0  0  1  0  0  0  0  0  0  0  0  0
  -26.9980   -7.9810  -29.4950 C   0  0  0  0  0  0  0  0  0  0  0  0
  -26.3130   -8.8580  -28.7340 O   0  0  0  0  0  0  0  0  0  0  0  0
  -27.0580   -9.2350  -27.6380 C   0  0  0  0  0  0  0  0  0  0  0  0
  -28.2770   -8.3640  -27.5840 C   0  0  0  0  0  0  0  0  0  0  0  0
  -29.1120   -1.6180  -30.0980 C   0  0  0  0  0  0  0  0  0  0  0  0
  1  2  2  0
  1  6  1  0
  1  3  1  0
  2  4  1  0
 10  3  1  1
  4  5  2  0
  5  6  1  0
  6  7  1  0
  7  9  1  0
  7  8  2  0
 10 11  1  0
 10 14  1  0
 11 12  1  0
 12 13  1  0
 13 14  1  0
  9 15  1  0
M  END
>  <name>  (709) 
Car Nac Nd0 Car Nac Nac Cs2 .=O Cs3 C3r C3r O_a C3r C3r Cs3

>  <indices>  (709) 
[0, 1, 2]

>  <tasks>  (709) 
probe_placing close_aromatic_ring close_aromatic_ring close_aromatic_ring ring_built build_to_Nac build_DB_to_Cs2 build_SB_to_Cs2 build_to_Nd0 close_aliphatic_ring close_aliphatic_ring close_aliphatic_ring close_aliphatic_ring

>  <prot_clashes>  (709) 
5

>  <NBS phar>  (709) 
0.22000000000000003

>  <NBS_non-phar>  (709) 
0.5653254191080729

>  <NBS>  (709) 
0.785325419108073

>  <source_stage>  (709) 
scored

>  <source_iter>  (709) 
12

>  <source_parent_mol>  (709) 
1

>  <source_scenario>  (709) 
1 2 3 1 7 1 0 8 3 1 2 1

>  <source_rank_in_scored_call>  (709) 
13

>  <source_current_task>  (709) 
no_task

>  <scenario>  (709) 
1 2 3 1 7 1 0 8 3 1 2

>  <protected_ring_attachments>  (709) 
3,1,0,2|1,0,2;4,5,0,2|5,0,2;11,10,9,2|10,9,2;12,13,9,2|13,9,2

>  <current_task>  (709) 
no_task

>  <rotatable_bond_torsions>  (709) 
1,0,2,9;0,2,9,10;0,5,6,8

$$$$

     RDKit          3D

 15 16  0  0  0  0  0  0  0  0999 V2000
  -28.5300   -6.0620  -30.7090 C   0  0  0  0  0  0  0  0  0  0  0  0
  -27.8290   -6.2870  -31.8560 N   0  0  0  0  0  0  0  0  0  0  0  0
  -29.1880   -7.2020  -29.9840 N   0  0  0  0  0  0  0  0  0  0  0  0
  -27.3140   -5.1200  -32.2810 C   0  0  0  0  0  0  0  0  0  0  0  0
  -27.7090   -4.1750  -31.3820 N   0  0  0  0  0  0  0  0  0  0  0  0
  -28.4380   -4.7440  -30.4380 N   0  0  0  0  0  0  0  0  0  0  0  0
  -28.9780   -4.0850  -29.3530 C   0  0  0  0  0  0  0  0  0  0  0  0
  -29.6950   -4.5960  -28.5100 O   0  0  0  0  0  0  0  0  0  0  0  0
  -28.5810   -2.6240  -29.0340 C   0  0  0  0  0  0  0  0  0  0  0  0
  -28.4350   -7.9770  -29.0290 C   0  0  1  0  0  0  0  0  0  0  0  0
  -26.9980   -7.9810  -29.4950 C   0  0  0  0  0  0  0  0  0  0  0  0
  -26.3130   -8.8570  -28.7340 O   0  0  0  0  0  0  0  0  0  0  0  0
  -27.0580   -9.2340  -27.6380 C   0  0  0  0  0  0  0  0  0  0  0  0
  -28.2770   -8.3630  -27.5840 C   0  0  0  0  0  0  0  0  0  0  0  0
  -29.0430   -1.6940  -30.1720 C   0  0  0  0  0  0  0  0  0  0  0  0
  1  2  2  0
  1  6  1  0
  1  3  1  0
  2  4  1  0
 10  3  1  1
  4  5  2  0
  5  6  1  0
  6  7  1  0
  7  9  1  0
  7  8  2  0
 10 11  1  0
 10 14  1  0
 11 12  1  0
 12 13  1  0
 13 14  1  0
  9 15  1  0
M  END
>  <name>  (710) 
Car Nac Nd0 Car Nac Nac Cs2 .=O Cs3 C3r C3r O_a C3r C3r Cs3

>  <indices>  (710) 
[0, 1, 2]

>  <tasks>  (710) 
probe_placing close_aromatic_ring close_aromatic_ring close_aromatic_ring ring_built build_to_Nac build_DB_to_Cs2 build_SB_to_Cs2 build_to_Nd0 close_aliphatic_ring close_aliphatic_ring close_aliphatic_ring close_aliphatic_ring

>  <prot_clashes>  (710) 
5

>  <NBS phar>  (710) 
0.22000000000000003

>  <NBS_non-phar>  (710) 
0.560321044921875

>  <NBS>  (710) 
0.7803210449218749

>  <source_stage>  (710) 
scored

>  <source_iter>  (710) 
12

>  <source_parent_mol>  (710) 
1

>  <source_scenario>  (710) 
1 2 3 1 7 1 0 8 3 1 2 1

>  <source_rank_in_scored_call>  (710) 
15

>  <source_current_task>  (710) 
no_task

>  <scenario>  (710) 
1 2 3 1 7 1 0 8 3 1 2

>  <protected_ring_attachments>  (710) 
3,1,0,2|1,0,2;4,5,0,2|5,0,2;11,10,9,2|10,9,2;12,13,9,2|13,9,2

>  <current_task>  (710) 
no_task

>  <rotatable_bond_torsions>  (710) 
1,0,2,9;0,2,9,10;0,5,6,8

$$$$

     RDKit          3D

 15 16  0  0  0  0  0  0  0  0999 V2000
  -28.5470   -6.0740  -30.6990 C   0  0  0  0  0  0  0  0  0  0  0  0
  -27.8040   -6.2440  -31.8290 N   0  0  0  0  0  0  0  0  0  0  0  0
  -29.1870   -7.2540  -30.0240 N   0  0  0  0  0  0  0  0  0  0  0  0
  -27.3170   -5.0490  -32.2070 C   0  0  0  0  0  0  0  0  0  0  0  0
  -27.7700   -4.1430  -31.2960 N   0  0  0  0  0  0  0  0  0  0  0  0
  -28.5080   -4.7620  -30.3900 N   0  0  0  0  0  0  0  0  0  0  0  0
  -29.1030   -4.1510  -29.3060 C   0  0  0  0  0  0  0  0  0  0  0  0
  -29.8260   -4.7080  -28.4990 O   0  0  0  0  0  0  0  0  0  0  0  0
  -28.7660   -2.6870  -28.9360 C   0  0  0  0  0  0  0  0  0  0  0  0
  -28.4370   -8.0300  -29.0680 C   0  0  1  0  0  0  0  0  0  0  0  0
  -26.9870   -7.9730  -29.4890 C   0  0  0  0  0  0  0  0  0  0  0  0
  -26.2950   -8.8470  -28.7300 O   0  0  0  0  0  0  0  0  0  0  0  0
  -27.0600   -9.2780  -27.6680 C   0  0  0  0  0  0  0  0  0  0  0  0
  -28.3090   -8.4500  -27.6290 C   0  0  0  0  0  0  0  0  0  0  0  0
  -27.6230   -2.6070  -27.9340 C   0  0  0  0  0  0  0  0  0  0  0  0
  1  2  2  0
  1  6  1  0
  1  3  1  0
  2  4  1  0
 10  3  1  1
  4  5  2  0
  5  6  1  0
  6  7  1  0
  7  9  1  0
  7  8  2  0
 10 11  1  0
 10 14  1  0
 11 12  1  0
 12 13  1  0
 13 14  1  0
  9 15  1  0
M  END
>  <name>  (711) 
Car Nac Nd0 Car Nac Nac Cs2 .=O Cs3 C3r C3r O_a C3r C3r Cs3

>  <indices>  (711) 
[0, 1, 2]

>  <tasks>  (711) 
probe_placing close_aromatic_ring close_aromatic_ring close_aromatic_ring ring_built build_to_Nac build_DB_to_Cs2 build_SB_to_Cs2 build_to_Nd0 close_aliphatic_ring close_aliphatic_ring close_aliphatic_ring close_aliphatic_ring

>  <prot_clashes>  (711) 
4

>  <NBS phar>  (711) 
0.2

>  <NBS_non-phar>  (711) 
0.5792366663614908

>  <NBS>  (711) 
0.7792366663614909

>  <source_stage>  (711) 
scored

>  <source_iter>  (711) 
12

>  <source_parent_mol>  (711) 
1

>  <source_scenario>  (711) 
1 2 3 1 7 1 0 8 3 1 2 1

>  <source_rank_in_scored_call>  (711) 
16

>  <source_current_task>  (711) 
no_task

>  <scenario>  (711) 
1 2 3 1 7 1 0 8 3 1 2

>  <protected_ring_attachments>  (711) 
3,1,0,2|1,0,2;4,5,0,2|5,0,2;11,10,9,2|10,9,2;12,13,9,2|13,9,2

>  <current_task>  (711) 
no_task

>  <rotatable_bond_torsions>  (711) 
1,0,2,9;0,2,9,10;0,5,6,8

$$$$

     RDKit          3D

 15 16  0  0  0  0  0  0  0  0999 V2000
  -28.5300   -6.0620  -30.7090 C   0  0  0  0  0  0  0  0  0  0  0  0
  -27.8290   -6.2870  -31.8560 N   0  0  0  0  0  0  0  0  0  0  0  0
  -29.1880   -7.2020  -29.9830 N   0  0  0  0  0  0  0  0  0  0  0  0
  -27.3140   -5.1200  -32.2810 C   0  0  0  0  0  0  0  0  0  0  0  0
  -27.7080   -4.1750  -31.3810 N   0  0  0  0  0  0  0  0  0  0  0  0
  -28.4380   -4.7440  -30.4380 N   0  0  0  0  0  0  0  0  0  0  0  0
  -28.9770   -4.0850  -29.3530 C   0  0  0  0  0  0  0  0  0  0  0  0
  -29.6940   -4.5960  -28.5090 O   0  0  0  0  0  0  0  0  0  0  0  0
  -28.5800   -2.6240  -29.0340 C   0  0  0  0  0  0  0  0  0  0  0  0
  -28.4350   -7.9770  -29.0290 C   0  0  1  0  0  0  0  0  0  0  0  0
  -26.9980   -7.9810  -29.4950 C   0  0  0  0  0  0  0  0  0  0  0  0
  -26.3130   -8.8580  -28.7340 O   0  0  0  0  0  0  0  0  0  0  0  0
  -27.0580   -9.2350  -27.6380 C   0  0  0  0  0  0  0  0  0  0  0  0
  -28.2770   -8.3630  -27.5840 C   0  0  0  0  0  0  0  0  0  0  0  0
  -29.1000   -1.7110  -30.1390 C   0  0  0  0  0  0  0  0  0  0  0  0
  1  2  2  0
  1  6  1  0
  1  3  1  0
  2  4  1  0
 10  3  1  1
  4  5  2  0
  5  6  1  0
  6  7  1  0
  7  9  1  0
  7  8  2  0
 10 11  1  0
 10 14  1  0
 11 12  1  0
 12 13  1  0
 13 14  1  0
  9 15  1  0
M  END
>  <name>  (712) 
Car Nac Nd0 Car Nac Nac Cs2 .=O Cs3 C3r C3r O_a C3r C3r Cs3

>  <indices>  (712) 
[0, 1, 2]

>  <tasks>  (712) 
probe_placing close_aromatic_ring close_aromatic_ring close_aromatic_ring ring_built build_to_Nac build_DB_to_Cs2 build_SB_to_Cs2 build_to_Nd0 close_aliphatic_ring close_aliphatic_ring close_aliphatic_ring close_aliphatic_ring

>  <prot_clashes>  (712) 
5

>  <NBS phar>  (712) 
0.22000000000000003

>  <NBS_non-phar>  (712) 
0.5369022369384766

>  <NBS>  (712) 
0.7569022369384766

>  <source_stage>  (712) 
scored

>  <source_iter>  (712) 
12

>  <source_parent_mol>  (712) 
1

>  <source_scenario>  (712) 
1 2 3 1 7 1 0 8 3 1 2 1

>  <source_rank_in_scored_call>  (712) 
24

>  <source_current_task>  (712) 
no_task

>  <scenario>  (712) 
1 2 3 1 7 1 0 8 3 1 2

>  <protected_ring_attachments>  (712) 
3,1,0,2|1,0,2;4,5,0,2|5,0,2;11,10,9,2|10,9,2;12,13,9,2|13,9,2

>  <current_task>  (712) 
no_task

>  <rotatable_bond_torsions>  (712) 
1,0,2,9;0,2,9,10;0,5,6,8

$$$$

     RDKit          3D

 15 16  0  0  0  0  0  0  0  0999 V2000
  -28.5310   -6.0660  -30.7130 C   0  0  0  0  0  0  0  0  0  0  0  0
  -27.8300   -6.2930  -31.8600 N   0  0  0  0  0  0  0  0  0  0  0  0
  -29.1890   -7.2040  -29.9850 N   0  0  0  0  0  0  0  0  0  0  0  0
  -27.3150   -5.1260  -32.2860 C   0  0  0  0  0  0  0  0  0  0  0  0
  -27.7090   -4.1790  -31.3880 N   0  0  0  0  0  0  0  0  0  0  0  0
  -28.4380   -4.7470  -30.4440 N   0  0  0  0  0  0  0  0  0  0  0  0
  -28.9780   -4.0860  -29.3590 C   0  0  0  0  0  0  0  0  0  0  0  0
  -29.6940   -4.5960  -28.5150 O   0  0  0  0  0  0  0  0  0  0  0  0
  -28.5810   -2.6250  -29.0430 C   0  0  0  0  0  0  0  0  0  0  0  0
  -28.4350   -7.9780  -29.0290 C   0  0  1  0  0  0  0  0  0  0  0  0
  -26.9980   -7.9830  -29.4960 C   0  0  0  0  0  0  0  0  0  0  0  0
  -26.3130   -8.8580  -28.7330 O   0  0  0  0  0  0  0  0  0  0  0  0
  -27.0580   -9.2330  -27.6370 C   0  0  0  0  0  0  0  0  0  0  0  0
  -28.2770   -8.3620  -27.5840 C   0  0  0  0  0  0  0  0  0  0  0  0
  -28.5060   -1.6990  -30.2590 C   0  0  0  0  0  0  0  0  0  0  0  0
  1  2  2  0
  1  6  1  0
  1  3  1  0
  2  4  1  0
 10  3  1  1
  4  5  2  0
  5  6  1  0
  6  7  1  0
  7  9  1  0
  7  8  2  0
 10 11  1  0
 10 14  1  0
 11 12  1  0
 12 13  1  0
 13 14  1  0
  9 15  1  0
M  END
>  <name>  (713) 
Car Nac Nd0 Car Nac Nac Cs2 .=O Cs3 C3r C3r O_a C3r C3r Cs3

>  <indices>  (713) 
[0, 1, 2]

>  <tasks>  (713) 
probe_placing close_aromatic_ring close_aromatic_ring close_aromatic_ring ring_built build_to_Nac build_DB_to_Cs2 build_SB_to_Cs2 build_to_Nd0 close_aliphatic_ring close_aliphatic_ring close_aliphatic_ring close_aliphatic_ring

>  <prot_clashes>  (713) 
4

>  <NBS phar>  (713) 
0.22000000000000003

>  <NBS_non-phar>  (713) 
0.535235595703125

>  <NBS>  (713) 
0.7552355957031249

>  <source_stage>  (713) 
scored

>  <source_iter>  (713) 
12

>  <source_parent_mol>  (713) 
1

>  <source_scenario>  (713) 
1 2 3 1 7 1 0 8 3 1 2 1

>  <source_rank_in_scored_call>  (713) 
28

>  <source_current_task>  (713) 
no_task

>  <scenario>  (713) 
1 2 3 1 7 1 0 8 3 1 2

>  <protected_ring_attachments>  (713) 
3,1,0,2|1,0,2;4,5,0,2|5,0,2;11,10,9,2|10,9,2;12,13,9,2|13,9,2

>  <current_task>  (713) 
no_task

>  <rotatable_bond_torsions>  (713) 
1,0,2,9;0,2,9,10;0,5,6,8

$$$$

     RDKit          3D

 15 16  0  0  0  0  0  0  0  0999 V2000
  -28.5520   -6.1230  -30.6750 C   0  0  0  0  0  0  0  0  0  0  0  0
  -27.7960   -6.2950  -31.7960 N   0  0  0  0  0  0  0  0  0  0  0  0
  -29.1890   -7.3040  -29.9990 N   0  0  0  0  0  0  0  0  0  0  0  0
  -27.3150   -5.0980  -32.1780 C   0  0  0  0  0  0  0  0  0  0  0  0
  -27.7870   -4.1890  -31.2790 N   0  0  0  0  0  0  0  0  0  0  0  0
  -28.5290   -4.8080  -30.3770 N   0  0  0  0  0  0  0  0  0  0  0  0
  -29.1420   -4.1940  -29.3040 C   0  0  0  0  0  0  0  0  0  0  0  0
  -29.8690   -4.7520  -28.5000 O   0  0  0  0  0  0  0  0  0  0  0  0
  -28.8220   -2.7240  -28.9420 C   0  0  0  0  0  0  0  0  0  0  0  0
  -28.4420   -8.0650  -29.0280 C   0  0  1  0  0  0  0  0  0  0  0  0
  -26.9880   -7.9980  -29.4330 C   0  0  0  0  0  0  0  0  0  0  0  0
  -26.2980   -8.8590  -28.6600 O   0  0  0  0  0  0  0  0  0  0  0  0
  -27.0700   -9.2890  -27.6030 C   0  0  0  0  0  0  0  0  0  0  0  0
  -28.3270   -8.4720  -27.5840 C   0  0  0  0  0  0  0  0  0  0  0  0
  -27.4980   -2.4990  -28.2720 C   0  0  0  0  0  0  0  0  0  0  0  0
  1  2  2  0
  1  6  1  0
  1  3  1  0
  2  4  1  0
 10  3  1  1
  4  5  2  0
  5  6  1  0
  6  7  1  0
  7  9  1  0
  7  8  2  0
 10 11  1  0
 10 14  1  0
 11 12  1  0
 12 13  1  0
 13 14  1  0
  9 15  1  0
M  END
>  <name>  (714) 
Car Nac Nd0 Car Nac Nac Cs2 .=O Cs3 C3r C3r O_a C3r C3r Cs3

>  <indices>  (714) 
[0, 1, 2]

>  <tasks>  (714) 
probe_placing close_aromatic_ring close_aromatic_ring close_aromatic_ring ring_built build_to_Nac build_DB_to_Cs2 build_SB_to_Cs2 build_to_Nd0 close_aliphatic_ring close_aliphatic_ring close_aliphatic_ring close_aliphatic_ring

>  <prot_clashes>  (714) 
4

>  <NBS phar>  (714) 
0.1

>  <NBS_non-phar>  (714) 
0.644895871480306

>  <NBS>  (714) 
0.744895871480306

>  <source_stage>  (714) 
scored

>  <source_iter>  (714) 
12

>  <source_parent_mol>  (714) 
1

>  <source_scenario>  (714) 
1 2 3 1 7 1 0 8 3 1 2 1

>  <source_rank_in_scored_call>  (714) 
36

>  <source_current_task>  (714) 
no_task

>  <scenario>  (714) 
1 2 3 1 7 1 0 8 3 1 2

>  <protected_ring_attachments>  (714) 
3,1,0,2|1,0,2;4,5,0,2|5,0,2;11,10,9,2|10,9,2;12,13,9,2|13,9,2

>  <current_task>  (714) 
no_task

>  <rotatable_bond_torsions>  (714) 
1,0,2,9;0,2,9,10;0,5,6,8

$$$$

     RDKit          3D

 15 16  0  0  0  0  0  0  0  0999 V2000
  -28.5290   -6.0650  -30.7100 C   0  0  0  0  0  0  0  0  0  0  0  0
  -27.8300   -6.2970  -31.8570 N   0  0  0  0  0  0  0  0  0  0  0  0
  -29.1880   -7.2000  -29.9780 N   0  0  0  0  0  0  0  0  0  0  0  0
  -27.3130   -5.1330  -32.2880 C   0  0  0  0  0  0  0  0  0  0  0  0
  -27.7050   -4.1820  -31.3920 N   0  0  0  0  0  0  0  0  0  0  0  0
  -28.4340   -4.7460  -30.4450 N   0  0  0  0  0  0  0  0  0  0  0  0
  -28.9710   -4.0810  -29.3620 C   0  0  0  0  0  0  0  0  0  0  0  0
  -29.6870   -4.5860  -28.5150 O   0  0  0  0  0  0  0  0  0  0  0  0
  -28.5710   -2.6190  -29.0510 C   0  0  0  0  0  0  0  0  0  0  0  0
  -28.4350   -7.9730  -29.0210 C   0  0  1  0  0  0  0  0  0  0  0  0
  -26.9990   -7.9810  -29.4890 C   0  0  0  0  0  0  0  0  0  0  0  0
  -26.3140   -8.8550  -28.7240 O   0  0  0  0  0  0  0  0  0  0  0  0
  -27.0580   -9.2260  -27.6260 C   0  0  0  0  0  0  0  0  0  0  0  0
  -28.2760   -8.3520  -27.5740 C   0  0  0  0  0  0  0  0  0  0  0  0
  -28.8130   -2.3280  -27.6360 C   0  0  0  0  0  0  0  0  0  0  0  0
  1  2  2  0
  1  6  1  0
  1  3  1  0
  2  4  1  0
 10  3  1  1
  4  5  2  0
  5  6  1  0
  6  7  1  0
  7  9  1  0
  7  8  2  0
 10 11  1  0
 10 14  1  0
 11 12  1  0
 12 13  1  0
 13 14  1  0
  9 15  1  0
M  END
>  <name>  (715) 
Car Nac Nd0 Car Nac Nac Cs2 .=O Cs3 C3r C3r O_a C3r C3r Cs3

>  <indices>  (715) 
[0, 1, 2]

>  <tasks>  (715) 
probe_placing close_aromatic_ring close_aromatic_ring close_aromatic_ring ring_built build_to_Nac build_DB_to_Cs2 build_SB_to_Cs2 build_to_Nd0 close_aliphatic_ring close_aliphatic_ring close_aliphatic_ring close_aliphatic_ring

>  <prot_clashes>  (715) 
5

>  <NBS phar>  (715) 
0.2

>  <NBS_non-phar>  (715) 
0.544238535563151

>  <NBS>  (715) 
0.7442385355631511

>  <source_stage>  (715) 
scored

>  <source_iter>  (715) 
12

>  <source_parent_mol>  (715) 
1

>  <source_scenario>  (715) 
1 2 3 1 7 1 0 8 3 1 2 1

>  <source_rank_in_scored_call>  (715) 
37

>  <source_current_task>  (715) 
no_task

>  <scenario>  (715) 
1 2 3 1 7 1 0 8 3 1 2

>  <protected_ring_attachments>  (715) 
3,1,0,2|1,0,2;4,5,0,2|5,0,2;11,10,9,2|10,9,2;12,13,9,2|13,9,2

>  <current_task>  (715) 
no_task

>  <rotatable_bond_torsions>  (715) 
1,0,2,9;0,2,9,10;0,5,6,8

$$$$

     RDKit          3D

 15 16  0  0  0  0  0  0  0  0999 V2000
  -28.5300   -6.0820  -30.7240 C   0  0  0  0  0  0  0  0  0  0  0  0
  -27.8290   -6.3190  -31.8690 N   0  0  0  0  0  0  0  0  0  0  0  0
  -29.1880   -7.2140  -29.9880 N   0  0  0  0  0  0  0  0  0  0  0  0
  -27.3130   -5.1560  -32.3050 C   0  0  0  0  0  0  0  0  0  0  0  0
  -27.7070   -4.2010  -31.4150 N   0  0  0  0  0  0  0  0  0  0  0  0
  -28.4370   -4.7620  -30.4660 N   0  0  0  0  0  0  0  0  0  0  0  0
  -28.9770   -4.0920  -29.3870 C   0  0  0  0  0  0  0  0  0  0  0  0
  -29.6940   -4.5940  -28.5390 O   0  0  0  0  0  0  0  0  0  0  0  0
  -28.5790   -2.6280  -29.0820 C   0  0  0  0  0  0  0  0  0  0  0  0
  -28.4350   -7.9810  -29.0260 C   0  0  1  0  0  0  0  0  0  0  0  0
  -26.9980   -7.9900  -29.4920 C   0  0  0  0  0  0  0  0  0  0  0  0
  -26.3140   -8.8590  -28.7220 O   0  0  0  0  0  0  0  0  0  0  0  0
  -27.0590   -9.2250  -27.6230 C   0  0  0  0  0  0  0  0  0  0  0  0
  -28.2780   -8.3530  -27.5770 C   0  0  0  0  0  0  0  0  0  0  0  0
  -28.4790   -2.4160  -27.6390 C   0  0  0  0  0  0  0  0  0  0  0  0
  1  2  2  0
  1  6  1  0
  1  3  1  0
  2  4  1  0
 10  3  1  1
  4  5  2  0
  5  6  1  0
  6  7  1  0
  7  9  1  0
  7  8  2  0
 10 11  1  0
 10 14  1  0
 11 12  1  0
 12 13  1  0
 13 14  1  0
  9 15  1  0
M  END
>  <name>  (716) 
Car Nac Nd0 Car Nac Nac Cs2 .=O Cs3 C3r C3r O_a C3r C3r Cs3

>  <indices>  (716) 
[0, 1, 2]

>  <tasks>  (716) 
probe_placing close_aromatic_ring close_aromatic_ring close_aromatic_ring ring_built build_to_Nac build_DB_to_Cs2 build_SB_to_Cs2 build_to_Nd0 close_aliphatic_ring close_aliphatic_ring close_aliphatic_ring close_aliphatic_ring

>  <prot_clashes>  (716) 
4

>  <NBS phar>  (716) 
0.2

>  <NBS_non-phar>  (716) 
0.5150607744852702

>  <NBS>  (716) 
0.7150607744852702

>  <source_stage>  (716) 
scored

>  <source_iter>  (716) 
12

>  <source_parent_mol>  (716) 
1

>  <source_scenario>  (716) 
1 2 3 1 7 1 0 8 3 1 2 1

>  <source_rank_in_scored_call>  (716) 
58

>  <source_current_task>  (716) 
no_task

>  <scenario>  (716) 
1 2 3 1 7 1 0 8 3 1 2

>  <protected_ring_attachments>  (716) 
3,1,0,2|1,0,2;4,5,0,2|5,0,2;11,10,9,2|10,9,2;12,13,9,2|13,9,2

>  <current_task>  (716) 
no_task

>  <rotatable_bond_torsions>  (716) 
1,0,2,9;0,2,9,10;0,5,6,8

$$$$

     RDKit          3D

 15 16  0  0  0  0  0  0  0  0999 V2000
  -28.5410   -6.0420  -30.7520 C   0  0  0  0  0  0  0  0  0  0  0  0
  -27.9840   -6.4030  -31.9420 N   0  0  0  0  0  0  0  0  0  0  0  0
  -29.1840   -7.0740  -29.8690 N   0  0  0  0  0  0  0  0  0  0  0  0
  -27.4470   -5.3110  -32.5150 C   0  0  0  0  0  0  0  0  0  0  0  0
  -27.6830   -4.2740  -31.6610 N   0  0  0  0  0  0  0  0  0  0  0  0
  -28.3390   -4.7170  -30.6030 N   0  0  0  0  0  0  0  0  0  0  0  0
  -28.7160   -3.9410  -29.5270 C   0  0  0  0  0  0  0  0  0  0  0  0
  -29.3660   -4.3340  -28.5730 O   0  0  0  0  0  0  0  0  0  0  0  0
  -28.1970   -2.4910  -29.3740 C   0  0  0  0  0  0  0  0  0  0  0  0
  -28.3800   -7.8250  -28.9360 C   0  0  1  0  0  0  0  0  0  0  0  0
  -27.0050   -7.9650  -29.5470 C   0  0  0  0  0  0  0  0  0  0  0  0
  -26.2970   -8.8260  -28.7900 O   0  0  0  0  0  0  0  0  0  0  0  0
  -26.9390   -9.0650  -27.5950 C   0  0  0  0  0  0  0  0  0  0  0  0
  -28.0900   -8.1090  -27.4880 C   0  0  0  0  0  0  0  0  0  0  0  0
  -29.2270   -1.4210  -29.5950 C   0  0  0  0  0  0  0  0  0  0  0  0
  1  2  2  0
  1  6  1  0
  1  3  1  0
  2  4  1  0
 10  3  1  1
  4  5  2  0
  5  6  1  0
  6  7  1  0
  7  9  1  0
  7  8  2  0
 10 11  1  0
 10 14  1  0
 11 12  1  0
 12 13  1  0
 13 14  1  0
  9 15  1  0
M  END
>  <name>  (717) 
Car Nac Nd0 Car Nac Nac Cs2 .=O Cs3 C3r C3r O_a C3r C3r Cs3

>  <indices>  (717) 
[0, 1, 2]

>  <tasks>  (717) 
probe_placing close_aromatic_ring close_aromatic_ring close_aromatic_ring ring_built build_to_Nac build_DB_to_Cs2 build_SB_to_Cs2 build_to_Nd0 close_aliphatic_ring close_aliphatic_ring close_aliphatic_ring close_aliphatic_ring

>  <prot_clashes>  (717) 
8

>  <NBS phar>  (717) 
0.2

>  <NBS_non-phar>  (717) 
0.5116552670796712

>  <NBS>  (717) 
0.7116552670796712

>  <source_stage>  (717) 
scored

>  <source_iter>  (717) 
12

>  <source_parent_mol>  (717) 
1

>  <source_scenario>  (717) 
1 2 3 1 7 1 0 8 3 1 2 1

>  <source_rank_in_scored_call>  (717) 
65

>  <source_current_task>  (717) 
no_task

>  <scenario>  (717) 
1 2 3 1 7 1 0 8 3 1 2

>  <protected_ring_attachments>  (717) 
3,1,0,2|1,0,2;4,5,0,2|5,0,2;11,10,9,2|10,9,2;12,13,9,2|13,9,2

>  <current_task>  (717) 
no_task

>  <rotatable_bond_torsions>  (717) 
1,0,2,9;0,2,9,10;0,5,6,8

$$$$

     RDKit          3D

 15 16  0  0  0  0  0  0  0  0999 V2000
  -28.5300   -6.0610  -30.7070 C   0  0  0  0  0  0  0  0  0  0  0  0
  -27.8290   -6.2870  -31.8550 N   0  0  0  0  0  0  0  0  0  0  0  0
  -29.1880   -7.2000  -29.9820 N   0  0  0  0  0  0  0  0  0  0  0  0
  -27.3140   -5.1190  -32.2800 C   0  0  0  0  0  0  0  0  0  0  0  0
  -27.7070   -4.1740  -31.3800 N   0  0  0  0  0  0  0  0  0  0  0  0
  -28.4370   -4.7430  -30.4360 N   0  0  0  0  0  0  0  0  0  0  0  0
  -28.9760   -4.0840  -29.3510 C   0  0  0  0  0  0  0  0  0  0  0  0
  -29.6920   -4.5940  -28.5070 O   0  0  0  0  0  0  0  0  0  0  0  0
  -28.5780   -2.6230  -29.0320 C   0  0  0  0  0  0  0  0  0  0  0  0
  -28.4350   -7.9760  -29.0270 C   0  0  1  0  0  0  0  0  0  0  0  0
  -26.9980   -7.9810  -29.4940 C   0  0  0  0  0  0  0  0  0  0  0  0
  -26.3130   -8.8580  -28.7330 O   0  0  0  0  0  0  0  0  0  0  0  0
  -27.0580   -9.2340  -27.6370 C   0  0  0  0  0  0  0  0  0  0  0  0
  -28.2760   -8.3630  -27.5820 C   0  0  0  0  0  0  0  0  0  0  0  0
  -27.7760   -2.4950  -27.7650 C   0  0  0  0  0  0  0  0  0  0  0  0
  1  2  2  0
  1  6  1  0
  1  3  1  0
  2  4  1  0
 10  3  1  1
  4  5  2  0
  5  6  1  0
  6  7  1  0
  7  9  1  0
  7  8  2  0
 10 11  1  0
 10 14  1  0
 11 12  1  0
 12 13  1  0
 13 14  1  0
  9 15  1  0
M  END
>  <name>  (718) 
Car Nac Nd0 Car Nac Nac Cs2 .=O Cs3 C3r C3r O_a C3r C3r Cs3

>  <indices>  (718) 
[0, 1, 2]

>  <tasks>  (718) 
probe_placing close_aromatic_ring close_aromatic_ring close_aromatic_ring ring_built build_to_Nac build_DB_to_Cs2 build_SB_to_Cs2 build_to_Nd0 close_aliphatic_ring close_aliphatic_ring close_aliphatic_ring close_aliphatic_ring

>  <prot_clashes>  (718) 
4

>  <NBS phar>  (718) 
0.2

>  <NBS_non-phar>  (718) 
0.5037709871927897

>  <NBS>  (718) 
0.7037709871927897

>  <source_stage>  (718) 
scored

>  <source_iter>  (718) 
12

>  <source_parent_mol>  (718) 
1

>  <source_scenario>  (718) 
1 2 3 1 7 1 0 8 3 1 2 1

>  <source_rank_in_scored_call>  (718) 
73

>  <source_current_task>  (718) 
no_task

>  <scenario>  (718) 
1 2 3 1 7 1 0 8 3 1 2

>  <protected_ring_attachments>  (718) 
3,1,0,2|1,0,2;4,5,0,2|5,0,2;11,10,9,2|10,9,2;12,13,9,2|13,9,2

>  <current_task>  (718) 
no_task

>  <rotatable_bond_torsions>  (718) 
1,0,2,9;0,2,9,10;0,5,6,8

$$$$

     RDKit          3D

 15 16  0  0  0  0  0  0  0  0999 V2000
  -28.5360   -6.0190  -30.7000 C   0  0  0  0  0  0  0  0  0  0  0  0
  -27.8890   -6.2640  -31.8750 N   0  0  0  0  0  0  0  0  0  0  0  0
  -29.1900   -7.1400  -29.9430 N   0  0  0  0  0  0  0  0  0  0  0  0
  -27.3650   -5.1110  -32.3250 C   0  0  0  0  0  0  0  0  0  0  0  0
  -27.6990   -4.1530  -31.4140 N   0  0  0  0  0  0  0  0  0  0  0  0
  -28.4020   -4.7030  -30.4390 N   0  0  0  0  0  0  0  0  0  0  0  0
  -28.8810   -4.0280  -29.3350 C   0  0  0  0  0  0  0  0  0  0  0  0
  -29.5740   -4.5190  -28.4600 O   0  0  0  0  0  0  0  0  0  0  0  0
  -28.4380   -2.5750  -29.0390 C   0  0  0  0  0  0  0  0  0  0  0  0
  -28.4150   -7.9300  -29.0180 C   0  0  1  0  0  0  0  0  0  0  0  0
  -26.9990   -7.9690  -29.5430 C   0  0  0  0  0  0  0  0  0  0  0  0
  -26.3040   -8.8590  -28.8070 O   0  0  0  0  0  0  0  0  0  0  0  0
  -27.0110   -9.2140  -27.6800 C   0  0  0  0  0  0  0  0  0  0  0  0
  -28.2060   -8.3150  -27.5790 C   0  0  0  0  0  0  0  0  0  0  0  0
  -28.9560   -2.0370  -27.7440 C   0  0  0  0  0  0  0  0  0  0  0  0
  1  2  2  0
  1  6  1  0
  1  3  1  0
  2  4  1  0
 10  3  1  1
  4  5  2  0
  5  6  1  0
  6  7  1  0
  7  9  1  0
  7  8  2  0
 10 11  1  0
 10 14  1  0
 11 12  1  0
 12 13  1  0
 13 14  1  0
  9 15  1  0
M  END
>  <name>  (719) 
Car Nac Nd0 Car Nac Nac Cs2 .=O Cs3 C3r C3r O_a C3r C3r Cs3

>  <indices>  (719) 
[0, 1, 2]

>  <tasks>  (719) 
probe_placing close_aromatic_ring close_aromatic_ring close_aromatic_ring ring_built build_to_Nac build_DB_to_Cs2 build_SB_to_Cs2 build_to_Nd0 close_aliphatic_ring close_aliphatic_ring close_aliphatic_ring close_aliphatic_ring

>  <prot_clashes>  (719) 
5

>  <NBS phar>  (719) 
0.2

>  <NBS_non-phar>  (719) 
0.4990054766337077

>  <NBS>  (719) 
0.6990054766337077

>  <source_stage>  (719) 
scored

>  <source_iter>  (719) 
12

>  <source_parent_mol>  (719) 
1

>  <source_scenario>  (719) 
1 2 3 1 7 1 0 8 3 1 2 1

>  <source_rank_in_scored_call>  (719) 
76

>  <source_current_task>  (719) 
no_task

>  <scenario>  (719) 
1 2 3 1 7 1 0 8 3 1 2

>  <protected_ring_attachments>  (719) 
3,1,0,2|1,0,2;4,5,0,2|5,0,2;11,10,9,2|10,9,2;12,13,9,2|13,9,2

>  <current_task>  (719) 
no_task

>  <rotatable_bond_torsions>  (719) 
1,0,2,9;0,2,9,10;0,5,6,8

$$$$

     RDKit          3D

 15 16  0  0  0  0  0  0  0  0999 V2000
  -28.5410   -6.0400  -30.7170 C   0  0  0  0  0  0  0  0  0  0  0  0
  -27.9520   -6.3510  -31.9070 N   0  0  0  0  0  0  0  0  0  0  0  0
  -29.1880   -7.1120  -29.8860 N   0  0  0  0  0  0  0  0  0  0  0  0
  -27.4210   -5.2300  -32.4280 C   0  0  0  0  0  0  0  0  0  0  0  0
  -27.6930   -4.2280  -31.5450 N   0  0  0  0  0  0  0  0  0  0  0  0
  -28.3650   -4.7180  -30.5180 N   0  0  0  0  0  0  0  0  0  0  0  0
  -28.7790   -3.9860  -29.4250 C   0  0  0  0  0  0  0  0  0  0  0  0
  -29.4440   -4.4220  -28.5010 O   0  0  0  0  0  0  0  0  0  0  0  0
  -28.2880   -2.5350  -29.2100 C   0  0  0  0  0  0  0  0  0  0  0  0
  -28.3930   -7.8830  -28.9620 C   0  0  1  0  0  0  0  0  0  0  0  0
  -27.0020   -7.9790  -29.5450 C   0  0  0  0  0  0  0  0  0  0  0  0
  -26.2960   -8.8550  -28.8020 O   0  0  0  0  0  0  0  0  0  0  0  0
  -26.9620   -9.1460  -27.6320 C   0  0  0  0  0  0  0  0  0  0  0  0
  -28.1300   -8.2130  -27.5180 C   0  0  0  0  0  0  0  0  0  0  0  0
  -29.1890   -1.6570  -28.3710 C   0  0  0  0  0  0  0  0  0  0  0  0
  1  2  2  0
  1  6  1  0
  1  3  1  0
  2  4  1  0
 10  3  1  1
  4  5  2  0
  5  6  1  0
  6  7  1  0
  7  9  1  0
  7  8  2  0
 10 11  1  0
 10 14  1  0
 11 12  1  0
 12 13  1  0
 13 14  1  0
  9 15  1  0
M  END
>  <name>  (720) 
Car Nac Nd0 Car Nac Nac Cs2 .=O Cs3 C3r C3r O_a C3r C3r Cs3

>  <indices>  (720) 
[0, 1, 2]

>  <tasks>  (720) 
probe_placing close_aromatic_ring close_aromatic_ring close_aromatic_ring ring_built build_to_Nac build_DB_to_Cs2 build_SB_to_Cs2 build_to_Nd0 close_aliphatic_ring close_aliphatic_ring close_aliphatic_ring close_aliphatic_ring

>  <prot_clashes>  (720) 
7

>  <NBS phar>  (720) 
0.2

>  <NBS_non-phar>  (720) 
0.4898914019266764

>  <NBS>  (720) 
0.6898914019266764

>  <source_stage>  (720) 
scored

>  <source_iter>  (720) 
12

>  <source_parent_mol>  (720) 
1

>  <source_scenario>  (720) 
1 2 3 1 7 1 0 8 3 1 2 1

>  <source_rank_in_scored_call>  (720) 
85

>  <source_current_task>  (720) 
no_task

>  <scenario>  (720) 
1 2 3 1 7 1 0 8 3 1 2

>  <protected_ring_attachments>  (720) 
3,1,0,2|1,0,2;4,5,0,2|5,0,2;11,10,9,2|10,9,2;12,13,9,2|13,9,2

>  <current_task>  (720) 
no_task

>  <rotatable_bond_torsions>  (720) 
1,0,2,9;0,2,9,10;0,5,6,8

$$$$

     RDKit          3D

 15 16  0  0  0  0  0  0  0  0999 V2000
  -28.5500   -6.0480  -30.7340 C   0  0  0  0  0  0  0  0  0  0  0  0
  -28.0100   -6.4170  -31.9310 N   0  0  0  0  0  0  0  0  0  0  0  0
  -29.1920   -7.0720  -29.8410 N   0  0  0  0  0  0  0  0  0  0  0  0
  -27.4710   -5.3310  -32.5120 C   0  0  0  0  0  0  0  0  0  0  0  0
  -27.6880   -4.2900  -31.6590 N   0  0  0  0  0  0  0  0  0  0  0  0
  -28.3350   -4.7250  -30.5920 N   0  0  0  0  0  0  0  0  0  0  0  0
  -28.6930   -3.9420  -29.5130 C   0  0  0  0  0  0  0  0  0  0  0  0
  -29.3350   -4.3270  -28.5520 O   0  0  0  0  0  0  0  0  0  0  0  0
  -28.1610   -2.4960  -29.3710 C   0  0  0  0  0  0  0  0  0  0  0  0
  -28.3840   -7.8270  -28.9160 C   0  0  1  0  0  0  0  0  0  0  0  0
  -27.0170   -7.9800  -29.5420 C   0  0  0  0  0  0  0  0  0  0  0  0
  -26.3070   -8.8460  -28.7910 O   0  0  0  0  0  0  0  0  0  0  0  0
  -26.9380   -9.0760  -27.5880 C   0  0  0  0  0  0  0  0  0  0  0  0
  -28.0780   -8.1100  -27.4700 C   0  0  0  0  0  0  0  0  0  0  0  0
  -29.2370   -1.4810  -29.0880 C   0  0  0  0  0  0  0  0  0  0  0  0
  1  2  2  0
  1  6  1  0
  1  3  1  0
  2  4  1  0
 10  3  1  1
  4  5  2  0
  5  6  1  0
  6  7  1  0
  7  9  1  0
  7  8  2  0
 10 11  1  0
 10 14  1  0
 11 12  1  0
 12 13  1  0
 13 14  1  0
  9 15  1  0
M  END
>  <name>  (721) 
Car Nac Nd0 Car Nac Nac Cs2 .=O Cs3 C3r C3r O_a C3r C3r Cs3

>  <indices>  (721) 
[0, 1, 2]

>  <tasks>  (721) 
probe_placing close_aromatic_ring close_aromatic_ring close_aromatic_ring ring_built build_to_Nac build_DB_to_Cs2 build_SB_to_Cs2 build_to_Nd0 close_aliphatic_ring close_aliphatic_ring close_aliphatic_ring close_aliphatic_ring

>  <prot_clashes>  (721) 
9

>  <NBS phar>  (721) 
0.12

>  <NBS_non-phar>  (721) 
0.5426190694173177

>  <NBS>  (721) 
0.6626190694173177

>  <source_stage>  (721) 
scored

>  <source_iter>  (721) 
12

>  <source_parent_mol>  (721) 
1

>  <source_scenario>  (721) 
1 2 3 1 7 1 0 8 3 1 2 1

>  <source_rank_in_scored_call>  (721) 
99

>  <source_current_task>  (721) 
no_task

>  <scenario>  (721) 
1 2 3 1 7 1 0 8 3 1 2

>  <protected_ring_attachments>  (721) 
3,1,0,2|1,0,2;4,5,0,2|5,0,2;11,10,9,2|10,9,2;12,13,9,2|13,9,2

>  <current_task>  (721) 
no_task

>  <rotatable_bond_torsions>  (721) 
1,0,2,9;0,2,9,10;0,5,6,8

$$$$

     RDKit          3D

 15 16  0  0  0  0  0  0  0  0999 V2000
  -28.5540   -6.0520  -30.7250 C   0  0  0  0  0  0  0  0  0  0  0  0
  -28.0260   -6.4290  -31.9240 N   0  0  0  0  0  0  0  0  0  0  0  0
  -29.1960   -7.0690  -29.8240 N   0  0  0  0  0  0  0  0  0  0  0  0
  -27.4850   -5.3480  -32.5130 C   0  0  0  0  0  0  0  0  0  0  0  0
  -27.6880   -4.3020  -31.6620 N   0  0  0  0  0  0  0  0  0  0  0  0
  -28.3300   -4.7300  -30.5880 N   0  0  0  0  0  0  0  0  0  0  0  0
  -28.6750   -3.9410  -29.5100 C   0  0  0  0  0  0  0  0  0  0  0  0
  -29.3120   -4.3190  -28.5420 O   0  0  0  0  0  0  0  0  0  0  0  0
  -28.1330   -2.4980  -29.3760 C   0  0  0  0  0  0  0  0  0  0  0  0
  -28.3850   -7.8260  -28.9020 C   0  0  1  0  0  0  0  0  0  0  0  0
  -27.0250   -7.9900  -29.5380 C   0  0  0  0  0  0  0  0  0  0  0  0
  -26.3140   -8.8570  -28.7890 O   0  0  0  0  0  0  0  0  0  0  0  0
  -26.9370   -9.0790  -27.5810 C   0  0  0  0  0  0  0  0  0  0  0  0
  -28.0710   -8.1060  -27.4580 C   0  0  0  0  0  0  0  0  0  0  0  0
  -29.1880   -1.5570  -28.8910 C   0  0  0  0  0  0  0  0  0  0  0  0
  1  2  2  0
  1  6  1  0
  1  3  1  0
  2  4  1  0
 10  3  1  1
  4  5  2  0
  5  6  1  0
  6  7  1  0
  7  9  1  0
  7  8  2  0
 10 11  1  0
 10 14  1  0
 11 12  1  0
 12 13  1  0
 13 14  1  0
  9 15  1  0
M  END
>  <name>  (722) 
Car Nac Nd0 Car Nac Nac Cs2 .=O Cs3 C3r C3r O_a C3r C3r Cs3

>  <indices>  (722) 
[0, 1, 2]

>  <tasks>  (722) 
probe_placing close_aromatic_ring close_aromatic_ring close_aromatic_ring ring_built build_to_Nac build_DB_to_Cs2 build_SB_to_Cs2 build_to_Nd0 close_aliphatic_ring close_aliphatic_ring close_aliphatic_ring close_aliphatic_ring

>  <prot_clashes>  (722) 
9

>  <NBS phar>  (722) 
0.12

>  <NBS_non-phar>  (722) 
0.5139698346455892

>  <NBS>  (722) 
0.6339698346455892

>  <source_stage>  (722) 
scored

>  <source_iter>  (722) 
12

>  <source_parent_mol>  (722) 
1

>  <source_scenario>  (722) 
1 2 3 1 7 1 0 8 3 1 2 1

>  <source_rank_in_scored_call>  (722) 
110

>  <source_current_task>  (722) 
no_task

>  <scenario>  (722) 
1 2 3 1 7 1 0 8 3 1 2

>  <protected_ring_attachments>  (722) 
3,1,0,2|1,0,2;4,5,0,2|5,0,2;11,10,9,2|10,9,2;12,13,9,2|13,9,2

>  <current_task>  (722) 
no_task

>  <rotatable_bond_torsions>  (722) 
1,0,2,9;0,2,9,10;0,5,6,8

$$$$

     RDKit          3D

 14 15  0  0  0  0  0  0  0  0999 V2000
  -28.5450   -6.5550  -31.0090 C   0  0  0  0  0  0  0  0  0  0  0  0
  -27.7970   -6.6580  -32.1460 N   0  0  0  0  0  0  0  0  0  0  0  0
  -29.1860   -7.7730  -30.4060 N   0  0  0  0  0  0  0  0  0  0  0  0
  -27.3130   -5.4430  -32.4500 C   0  0  0  0  0  0  0  0  0  0  0  0
  -27.7680   -4.5920  -31.4880 N   0  0  0  0  0  0  0  0  0  0  0  0
  -28.5070   -5.2630  -30.6250 N   0  0  0  0  0  0  0  0  0  0  0  0
  -29.1060   -4.7170  -29.5070 C   0  0  0  0  0  0  0  0  0  0  0  0
  -29.8330   -5.3220  -28.7360 O   0  0  0  0  0  0  0  0  0  0  0  0
  -28.7720   -3.2780  -29.0520 C   0  0  0  0  0  0  0  0  0  0  0  0
  -28.6870   -8.1980  -29.0700 C   0  0  2  0  0  0  0  0  0  0  0  0
  -27.3310   -7.6270  -28.7450 C   0  0  0  0  0  0  0  0  0  0  0  0
  -26.7520   -8.4840  -27.6290 C   0  0  0  0  0  0  0  0  0  0  0  0
  -27.9880   -9.1990  -27.0930 C   0  0  0  0  0  0  0  0  0  0  0  0
  -28.6550   -9.5720  -28.4120 C   0  0  0  0  0  0  0  0  0  0  0  0
  1  2  2  0
  1  6  1  0
  1  3  1  0
  2  4  1  0
 10  3  1  6
  4  5  2  0
  5  6  1  0
  6  7  1  0
  7  9  1  0
  7  8  2  0
 10 11  1  0
 10 14  1  0
 11 12  1  0
 12 13  1  0
 13 14  1  0
M  END
>  <name>  (723) 
Car Nac Nd0 Car Nac Nac Cs2 .=O Cs3 C3r C3r C3r C3r C3r

>  <indices>  (723) 
[0, 1, 2]

>  <tasks>  (723) 
probe_placing close_aromatic_ring close_aromatic_ring close_aromatic_ring ring_built build_to_Nac build_DB_to_Cs2 build_SB_to_Cs2 build_to_Nd0 close_aliphatic_ring close_aliphatic_ring close_aliphatic_ring

>  <prot_clashes>  (723) 
2

>  <NBS phar>  (723) 
0.2

>  <NBS_non-phar>  (723) 
0.6311262675694057

>  <NBS>  (723) 
0.8311262675694058

>  <source_stage>  (723) 
scored

>  <source_iter>  (723) 
11

>  <source_parent_mol>  (723) 
3

>  <source_scenario>  (723) 
1 2 3 1 7 1 0 8 4 4 3

>  <source_rank_in_scored_call>  (723) 
0

>  <source_current_task>  (723) 
close_aliphatic_ring

>  <scenario>  (723) 
1 2 3 1 7 1 0 8 4 4

>  <protected_ring_attachments>  (723) 
3,1,0,2|1,0,2;4,5,0,2|5,0,2

>  <current_task>  (723) 
no_task

>  <rotatable_bond_torsions>  (723) 
1,0,2,9;0,2,9,10;0,5,6,8;2,9,10,11;9,10,11,12

$$$$

     RDKit          3D

 15 16  0  0  0  0  0  0  0  0999 V2000
  -28.5300   -6.4900  -30.9660 C   0  0  0  0  0  0  0  0  0  0  0  0
  -27.8280   -6.6880  -32.1200 N   0  0  0  0  0  0  0  0  0  0  0  0
  -29.1920   -7.6450  -30.2690 N   0  0  0  0  0  0  0  0  0  0  0  0
  -27.3130   -5.5120  -32.5130 C   0  0  0  0  0  0  0  0  0  0  0  0
  -27.7020   -4.5900  -31.5890 N   0  0  0  0  0  0  0  0  0  0  0  0
  -28.4330   -5.1800  -30.6630 N   0  0  0  0  0  0  0  0  0  0  0  0
  -28.9710   -4.5470  -29.5600 C   0  0  0  0  0  0  0  0  0  0  0  0
  -29.6900   -5.0770  -28.7290 O   0  0  0  0  0  0  0  0  0  0  0  0
  -28.5700   -3.0970  -29.2040 C   0  0  0  0  0  0  0  0  0  0  0  0
  -28.6600   -8.0090  -28.9280 C   0  0  2  0  0  0  0  0  0  0  0  0
  -27.2730   -7.4710  -28.6840 C   0  0  0  0  0  0  0  0  0  0  0  0
  -26.6850   -8.2820  -27.5390 C   0  0  0  0  0  0  0  0  0  0  0  0
  -27.9250   -8.9170  -26.9190 C   0  0  0  0  0  0  0  0  0  0  0  0
  -28.6520   -9.3420  -28.1890 C   0  0  0  0  0  0  0  0  0  0  0  0
  -28.8130   -2.8490  -27.7820 C   0  0  0  0  0  0  0  0  0  0  0  0
  1  2  2  0
  1  6  1  0
  1  3  1  0
  2  4  1  0
 10  3  1  6
  4  5  2  0
  5  6  1  0
  6  7  1  0
  7  9  1  0
  7  8  2  0
 10 11  1  0
 10 14  1  0
 11 12  1  0
 12 13  1  0
 13 14  1  0
  9 15  1  0
M  END
>  <name>  (724) 
Car Nac Nd0 Car Nac Nac Cs2 .=O Cs3 C3r C3r C3r C3r C3r Cs3

>  <indices>  (724) 
[0, 1, 2]

>  <tasks>  (724) 
probe_placing close_aromatic_ring close_aromatic_ring close_aromatic_ring ring_built build_to_Nac build_DB_to_Cs2 build_SB_to_Cs2 build_to_Nd0 close_aliphatic_ring close_aliphatic_ring close_aliphatic_ring close_aliphatic_ring

>  <prot_clashes>  (724) 
6

>  <NBS phar>  (724) 
0.26000000000000006

>  <NBS_non-phar>  (724) 
0.627317237854004

>  <NBS>  (724) 
0.887317237854004

>  <source_stage>  (724) 
scored

>  <source_iter>  (724) 
12

>  <source_parent_mol>  (724) 
0

>  <source_scenario>  (724) 
1 2 3 1 7 1 0 8 4 4 3 0

>  <source_rank_in_scored_call>  (724) 
11

>  <source_current_task>  (724) 
no_task

>  <scenario>  (724) 
1 2 3 1 7 1 0 8 4 4 3

>  <protected_ring_attachments>  (724) 
3,1,0,2|1,0,2;4,5,0,2|5,0,2;11,10,9,2|10,9,2;12,13,9,2|13,9,2

>  <current_task>  (724) 
no_task

>  <rotatable_bond_torsions>  (724) 
1,0,2,9;0,2,9,10;0,5,6,8

>  <reason_to_skip>  (724) 
global_duplicate

>  <global_duplicate_rmsd>  (724) 
0.0

>  <global_duplicate_old_source_iter>  (724) 
11

>  <global_duplicate_old_source_parent_mol>  (724) 
3

>  <global_duplicate_old_index>  (724) 
NA

>  <global_duplicate_rotatable_bond_torsions>  (724) 
1,0,2,9;0,2,9,10;0,5,6,8

>  <global_duplicate_old_rotatable_bond_torsions>  (724) 
1,0,2,9;0,2,9,10;0,5,6,8

>  <global_duplicate_last_growth_torsion>  (724) 
(10, 11, 12, 13)

>  <global_duplicate_protected_ring_attachments>  (724) 
3,1,0,2|1,0,2;4,5,0,2|5,0,2;11,10,9,2|10,9,2;12,13,9,2|13,9,2

>  <global_duplicate_old_last_growth_torsion>  (724) 
(10, 11, 12, 13)

>  <global_duplicate_old_protected_ring_attachments>  (724) 
3,1,0,2|1,0,2;4,5,0,2|5,0,2;11,10,9,2|10,9,2;12,13,9,2|13,9,2

$$$$

     RDKit          3D

 15 16  0  0  0  0  0  0  0  0999 V2000
  -28.5500   -6.5070  -31.0020 C   0  0  0  0  0  0  0  0  0  0  0  0
  -27.7940   -6.6870  -32.1240 N   0  0  0  0  0  0  0  0  0  0  0  0
  -29.1860   -7.6830  -30.3150 N   0  0  0  0  0  0  0  0  0  0  0  0
  -27.3170   -5.4930  -32.5130 C   0  0  0  0  0  0  0  0  0  0  0  0
  -27.7840   -4.5780  -31.6180 N   0  0  0  0  0  0  0  0  0  0  0  0
  -28.5230   -5.1900  -30.7130 N   0  0  0  0  0  0  0  0  0  0  0  0
  -29.1330   -4.5690  -29.6400 C   0  0  0  0  0  0  0  0  0  0  0  0
  -29.8600   -5.1220  -28.8310 O   0  0  0  0  0  0  0  0  0  0  0  0
  -28.8110   -3.0980  -29.2890 C   0  0  0  0  0  0  0  0  0  0  0  0
  -28.6920   -8.0060  -28.9490 C   0  0  2  0  0  0  0  0  0  0  0  0
  -27.3420   -7.4030  -28.6590 C   0  0  0  0  0  0  0  0  0  0  0  0
  -26.7630   -8.1720  -27.4810 C   0  0  0  0  0  0  0  0  0  0  0  0
  -27.9970   -8.8550  -26.9010 C   0  0  0  0  0  0  0  0  0  0  0  0
  -28.6540   -9.3280  -28.1930 C   0  0  0  0  0  0  0  0  0  0  0  0
  -28.7770   -2.9130  -27.8390 C   0  0  0  0  0  0  0  0  0  0  0  0
  1  2  2  0
  1  6  1  0
  1  3  1  0
  2  4  1  0
 10  3  1  6
  4  5  2  0
  5  6  1  0
  6  7  1  0
  7  9  1  0
  7  8  2  0
 10 11  1  0
 10 14  1  0
 11 12  1  0
 12 13  1  0
 13 14  1  0
  9 15  1  0
M  END
>  <name>  (725) 
Car Nac Nd0 Car Nac Nac Cs2 .=O Cs3 C3r C3r C3r C3r C3r Cs3

>  <indices>  (725) 
[0, 1, 2]

>  <tasks>  (725) 
probe_placing close_aromatic_ring close_aromatic_ring close_aromatic_ring ring_built build_to_Nac build_DB_to_Cs2 build_SB_to_Cs2 build_to_Nd0 close_aliphatic_ring close_aliphatic_ring close_aliphatic_ring close_aliphatic_ring

>  <prot_clashes>  (725) 
6

>  <NBS phar>  (725) 
0.26000000000000006

>  <NBS_non-phar>  (725) 
0.6164591471354167

>  <NBS>  (725) 
0.8764591471354168

>  <source_stage>  (725) 
scored

>  <source_iter>  (725) 
12

>  <source_parent_mol>  (725) 
0

>  <source_scenario>  (725) 
1 2 3 1 7 1 0 8 4 4 3 0

>  <source_rank_in_scored_call>  (725) 
15

>  <source_current_task>  (725) 
no_task

>  <scenario>  (725) 
1 2 3 1 7 1 0 8 4 4 3

>  <protected_ring_attachments>  (725) 
3,1,0,2|1,0,2;4,5,0,2|5,0,2;11,10,9,2|10,9,2;12,13,9,2|13,9,2

>  <current_task>  (725) 
no_task

>  <rotatable_bond_torsions>  (725) 
1,0,2,9;0,2,9,10;0,5,6,8

>  <reason_to_skip>  (725) 
global_duplicate

>  <global_duplicate_rmsd>  (725) 
0.0

>  <global_duplicate_old_source_iter>  (725) 
11

>  <global_duplicate_old_source_parent_mol>  (725) 
3

>  <global_duplicate_old_index>  (725) 
NA

>  <global_duplicate_rotatable_bond_torsions>  (725) 
1,0,2,9;0,2,9,10;0,5,6,8

>  <global_duplicate_old_rotatable_bond_torsions>  (725) 
1,0,2,9;0,2,9,10;0,5,6,8

>  <global_duplicate_last_growth_torsion>  (725) 
(10, 11, 12, 13)

>  <global_duplicate_protected_ring_attachments>  (725) 
3,1,0,2|1,0,2;4,5,0,2|5,0,2;11,10,9,2|10,9,2;12,13,9,2|13,9,2

>  <global_duplicate_old_last_growth_torsion>  (725) 
(10, 11, 12, 13)

>  <global_duplicate_old_protected_ring_attachments>  (725) 
3,1,0,2|1,0,2;4,5,0,2|5,0,2;11,10,9,2|10,9,2;12,13,9,2|13,9,2

$$$$

     RDKit          3D

 15 16  0  0  0  0  0  0  0  0999 V2000
  -28.5240   -6.4640  -30.9850 C   0  0  0  0  0  0  0  0  0  0  0  0
  -27.8350   -6.6340  -32.1500 N   0  0  0  0  0  0  0  0  0  0  0  0
  -29.1890   -7.6340  -30.3150 N   0  0  0  0  0  0  0  0  0  0  0  0
  -27.3130   -5.4510  -32.5140 C   0  0  0  0  0  0  0  0  0  0  0  0
  -27.6870   -4.5530  -31.5600 N   0  0  0  0  0  0  0  0  0  0  0  0
  -28.4130   -5.1640  -30.6440 N   0  0  0  0  0  0  0  0  0  0  0  0
  -28.9360   -4.5590  -29.5190 C   0  0  0  0  0  0  0  0  0  0  0  0
  -29.6520   -5.1080  -28.6970 O   0  0  0  0  0  0  0  0  0  0  0  0
  -28.5200   -3.1230  -29.1250 C   0  0  0  0  0  0  0  0  0  0  0  0
  -28.6470   -8.0410  -28.9900 C   0  0  2  0  0  0  0  0  0  0  0  0
  -27.2540   -7.5210  -28.7440 C   0  0  0  0  0  0  0  0  0  0  0  0
  -26.6620   -8.3690  -27.6290 C   0  0  0  0  0  0  0  0  0  0  0  0
  -27.9020   -9.0120  -27.0150 C   0  0  0  0  0  0  0  0  0  0  0  0
  -28.6440   -9.3940  -28.2910 C   0  0  0  0  0  0  0  0  0  0  0  0
  -29.0860   -2.6660  -27.8190 C   0  0  0  0  0  0  0  0  0  0  0  0
  1  2  2  0
  1  6  1  0
  1  3  1  0
  2  4  1  0
 10  3  1  6
  4  5  2  0
  5  6  1  0
  6  7  1  0
  7  9  1  0
  7  8  2  0
 10 11  1  0
 10 14  1  0
 11 12  1  0
 12 13  1  0
 13 14  1  0
  9 15  1  0
M  END
>  <name>  (726) 
Car Nac Nd0 Car Nac Nac Cs2 .=O Cs3 C3r C3r C3r C3r C3r Cs3

>  <indices>  (726) 
[0, 1, 2]

>  <tasks>  (726) 
probe_placing close_aromatic_ring close_aromatic_ring close_aromatic_ring ring_built build_to_Nac build_DB_to_Cs2 build_SB_to_Cs2 build_to_Nd0 close_aliphatic_ring close_aliphatic_ring close_aliphatic_ring close_aliphatic_ring

>  <prot_clashes>  (726) 
7

>  <NBS phar>  (726) 
0.24000000000000005

>  <NBS_non-phar>  (726) 
0.6117058436075846

>  <NBS>  (726) 
0.8517058436075846

>  <source_stage>  (726) 
scored

>  <source_iter>  (726) 
12

>  <source_parent_mol>  (726) 
0

>  <source_scenario>  (726) 
1 2 3 1 7 1 0 8 4 4 3 0

>  <source_rank_in_scored_call>  (726) 
25

>  <source_current_task>  (726) 
no_task

>  <scenario>  (726) 
1 2 3 1 7 1 0 8 4 4 3

>  <protected_ring_attachments>  (726) 
3,1,0,2|1,0,2;4,5,0,2|5,0,2;11,10,9,2|10,9,2;12,13,9,2|13,9,2

>  <current_task>  (726) 
no_task

>  <rotatable_bond_torsions>  (726) 
1,0,2,9;0,2,9,10;0,5,6,8

>  <reason_to_skip>  (726) 
global_duplicate

>  <global_duplicate_rmsd>  (726) 
0.0

>  <global_duplicate_old_source_iter>  (726) 
11

>  <global_duplicate_old_source_parent_mol>  (726) 
3

>  <global_duplicate_old_index>  (726) 
NA

>  <global_duplicate_rotatable_bond_torsions>  (726) 
1,0,2,9;0,2,9,10;0,5,6,8

>  <global_duplicate_old_rotatable_bond_torsions>  (726) 
1,0,2,9;0,2,9,10;0,5,6,8

>  <global_duplicate_last_growth_torsion>  (726) 
(10, 11, 12, 13)

>  <global_duplicate_protected_ring_attachments>  (726) 
3,1,0,2|1,0,2;4,5,0,2|5,0,2;11,10,9,2|10,9,2;12,13,9,2|13,9,2

>  <global_duplicate_old_last_growth_torsion>  (726) 
(10, 11, 12, 13)

>  <global_duplicate_old_protected_ring_attachments>  (726) 
3,1,0,2|1,0,2;4,5,0,2|5,0,2;11,10,9,2|10,9,2;12,13,9,2|13,9,2

$$$$

     RDKit          3D

 15 16  0  0  0  0  0  0  0  0999 V2000
  -28.5380   -6.5200  -31.0120 C   0  0  0  0  0  0  0  0  0  0  0  0
  -27.8070   -6.6320  -32.1590 N   0  0  0  0  0  0  0  0  0  0  0  0
  -29.1880   -7.7290  -30.4010 N   0  0  0  0  0  0  0  0  0  0  0  0
  -27.3100   -5.4240  -32.4680 C   0  0  0  0  0  0  0  0  0  0  0  0
  -27.7390   -4.5680  -31.4990 N   0  0  0  0  0  0  0  0  0  0  0  0
  -28.4760   -5.2290  -30.6270 N   0  0  0  0  0  0  0  0  0  0  0  0
  -29.0510   -4.6760  -29.5000 C   0  0  0  0  0  0  0  0  0  0  0  0
  -29.7760   -5.2710  -28.7200 O   0  0  0  0  0  0  0  0  0  0  0  0
  -28.6900   -3.2420  -29.0480 C   0  0  0  0  0  0  0  0  0  0  0  0
  -28.6770   -8.1630  -29.0730 C   0  0  2  0  0  0  0  0  0  0  0  0
  -27.3080   -7.6120  -28.7660 C   0  0  0  0  0  0  0  0  0  0  0  0
  -26.7270   -8.4790  -27.6590 C   0  0  0  0  0  0  0  0  0  0  0  0
  -27.9650   -9.1770  -27.1060 C   0  0  0  0  0  0  0  0  0  0  0  0
  -28.6560   -9.5380  -28.4160 C   0  0  0  0  0  0  0  0  0  0  0  0
  -28.6090   -2.2110  -30.1750 C   0  0  0  0  0  0  0  0  0  0  0  0
  1  2  2  0
  1  6  1  0
  1  3  1  0
  2  4  1  0
 10  3  1  6
  4  5  2  0
  5  6  1  0
  6  7  1  0
  7  9  1  0
  7  8  2  0
 10 11  1  0
 10 14  1  0
 11 12  1  0
 12 13  1  0
 13 14  1  0
  9 15  1  0
M  END
>  <name>  (727) 
Car Nac Nd0 Car Nac Nac Cs2 .=O Cs3 C3r C3r C3r C3r C3r Cs3

>  <indices>  (727) 
[0, 1, 2]

>  <tasks>  (727) 
probe_placing close_aromatic_ring close_aromatic_ring close_aromatic_ring ring_built build_to_Nac build_DB_to_Cs2 build_SB_to_Cs2 build_to_Nd0 close_aliphatic_ring close_aliphatic_ring close_aliphatic_ring close_aliphatic_ring

>  <prot_clashes>  (727) 
2

>  <NBS phar>  (727) 
0.22000000000000003

>  <NBS_non-phar>  (727) 
0.6316794713338216

>  <NBS>  (727) 
0.8516794713338216

>  <source_stage>  (727) 
scored

>  <source_iter>  (727) 
12

>  <source_parent_mol>  (727) 
0

>  <source_scenario>  (727) 
1 2 3 1 7 1 0 8 4 4 3 0

>  <source_rank_in_scored_call>  (727) 
27

>  <source_current_task>  (727) 
no_task

>  <scenario>  (727) 
1 2 3 1 7 1 0 8 4 4 3

>  <protected_ring_attachments>  (727) 
3,1,0,2|1,0,2;4,5,0,2|5,0,2;11,10,9,2|10,9,2;12,13,9,2|13,9,2

>  <current_task>  (727) 
no_task

>  <rotatable_bond_torsions>  (727) 
1,0,2,9;0,2,9,10;0,5,6,8

>  <reason_to_skip>  (727) 
global_duplicate

>  <global_duplicate_rmsd>  (727) 
0.0

>  <global_duplicate_old_source_iter>  (727) 
11

>  <global_duplicate_old_source_parent_mol>  (727) 
3

>  <global_duplicate_old_index>  (727) 
NA

>  <global_duplicate_rotatable_bond_torsions>  (727) 
1,0,2,9;0,2,9,10;0,5,6,8

>  <global_duplicate_old_rotatable_bond_torsions>  (727) 
1,0,2,9;0,2,9,10;0,5,6,8

>  <global_duplicate_last_growth_torsion>  (727) 
(10, 11, 12, 13)

>  <global_duplicate_protected_ring_attachments>  (727) 
3,1,0,2|1,0,2;4,5,0,2|5,0,2;11,10,9,2|10,9,2;12,13,9,2|13,9,2

>  <global_duplicate_old_last_growth_torsion>  (727) 
(10, 11, 12, 13)

>  <global_duplicate_old_protected_ring_attachments>  (727) 
3,1,0,2|1,0,2;4,5,0,2|5,0,2;11,10,9,2|10,9,2;12,13,9,2|13,9,2

$$$$

     RDKit          3D

 15 16  0  0  0  0  0  0  0  0999 V2000
  -28.5500   -6.5450  -31.0100 C   0  0  0  0  0  0  0  0  0  0  0  0
  -27.7930   -6.6360  -32.1420 N   0  0  0  0  0  0  0  0  0  0  0  0
  -29.1880   -7.7710  -30.4190 N   0  0  0  0  0  0  0  0  0  0  0  0
  -27.3140   -5.4160  -32.4340 C   0  0  0  0  0  0  0  0  0  0  0  0
  -27.7820   -4.5740  -31.4700 N   0  0  0  0  0  0  0  0  0  0  0  0
  -28.5230   -5.2550  -30.6170 N   0  0  0  0  0  0  0  0  0  0  0  0
  -29.1340   -4.7200  -29.5000 C   0  0  0  0  0  0  0  0  0  0  0  0
  -29.8630   -5.3350  -28.7390 O   0  0  0  0  0  0  0  0  0  0  0  0
  -28.8120   -3.2820  -29.0330 C   0  0  0  0  0  0  0  0  0  0  0  0
  -28.6960   -8.2020  -29.0820 C   0  0  2  0  0  0  0  0  0  0  0  0
  -27.3460   -7.6240  -28.7440 C   0  0  0  0  0  0  0  0  0  0  0  0
  -26.7700   -8.4850  -27.6290 C   0  0  0  0  0  0  0  0  0  0  0  0
  -28.0060   -9.2110  -27.1070 C   0  0  0  0  0  0  0  0  0  0  0  0
  -28.6600   -9.5800  -28.4330 C   0  0  0  0  0  0  0  0  0  0  0  0
  -27.4880   -3.1070  -28.3490 C   0  0  0  0  0  0  0  0  0  0  0  0
  1  2  2  0
  1  6  1  0
  1  3  1  0
  2  4  1  0
 10  3  1  6
  4  5  2  0
  5  6  1  0
  6  7  1  0
  7  9  1  0
  7  8  2  0
 10 11  1  0
 10 14  1  0
 11 12  1  0
 12 13  1  0
 13 14  1  0
  9 15  1  0
M  END
>  <name>  (728) 
Car Nac Nd0 Car Nac Nac Cs2 .=O Cs3 C3r C3r C3r C3r C3r Cs3

>  <indices>  (728) 
[0, 1, 2]

>  <tasks>  (728) 
probe_placing close_aromatic_ring close_aromatic_ring close_aromatic_ring ring_built build_to_Nac build_DB_to_Cs2 build_SB_to_Cs2 build_to_Nd0 close_aliphatic_ring close_aliphatic_ring close_aliphatic_ring close_aliphatic_ring

>  <prot_clashes>  (728) 
3

>  <NBS phar>  (728) 
0.2

>  <NBS_non-phar>  (728) 
0.6480473200480144

>  <NBS>  (728) 
0.8480473200480143

>  <source_stage>  (728) 
scored

>  <source_iter>  (728) 
12

>  <source_parent_mol>  (728) 
0

>  <source_scenario>  (728) 
1 2 3 1 7 1 0 8 4 4 3 0

>  <source_rank_in_scored_call>  (728) 
29

>  <source_current_task>  (728) 
no_task

>  <scenario>  (728) 
1 2 3 1 7 1 0 8 4 4 3

>  <protected_ring_attachments>  (728) 
3,1,0,2|1,0,2;4,5,0,2|5,0,2;11,10,9,2|10,9,2;12,13,9,2|13,9,2

>  <current_task>  (728) 
no_task

>  <rotatable_bond_torsions>  (728) 
1,0,2,9;0,2,9,10;0,5,6,8

>  <reason_to_skip>  (728) 
global_duplicate

>  <global_duplicate_rmsd>  (728) 
0.0

>  <global_duplicate_old_source_iter>  (728) 
11

>  <global_duplicate_old_source_parent_mol>  (728) 
3

>  <global_duplicate_old_index>  (728) 
NA

>  <global_duplicate_rotatable_bond_torsions>  (728) 
1,0,2,9;0,2,9,10;0,5,6,8

>  <global_duplicate_old_rotatable_bond_torsions>  (728) 
1,0,2,9;0,2,9,10;0,5,6,8

>  <global_duplicate_last_growth_torsion>  (728) 
(10, 11, 12, 13)

>  <global_duplicate_protected_ring_attachments>  (728) 
3,1,0,2|1,0,2;4,5,0,2|5,0,2;11,10,9,2|10,9,2;12,13,9,2|13,9,2

>  <global_duplicate_old_last_growth_torsion>  (728) 
(10, 11, 12, 13)

>  <global_duplicate_old_protected_ring_attachments>  (728) 
3,1,0,2|1,0,2;4,5,0,2|5,0,2;11,10,9,2|10,9,2;12,13,9,2|13,9,2

$$$$

     RDKit          3D

 15 16  0  0  0  0  0  0  0  0999 V2000
  -28.5430   -6.5030  -30.9840 C   0  0  0  0  0  0  0  0  0  0  0  0
  -27.8090   -6.6960  -32.1180 N   0  0  0  0  0  0  0  0  0  0  0  0
  -29.1890   -7.6680  -30.2880 N   0  0  0  0  0  0  0  0  0  0  0  0
  -27.3160   -5.5110  -32.5140 C   0  0  0  0  0  0  0  0  0  0  0  0
  -27.7520   -4.5880  -31.6110 N   0  0  0  0  0  0  0  0  0  0  0  0
  -28.4880   -5.1880  -30.6940 N   0  0  0  0  0  0  0  0  0  0  0  0
  -29.0680   -4.5560  -29.6120 C   0  0  0  0  0  0  0  0  0  0  0  0
  -29.7920   -5.0970  -28.7910 O   0  0  0  0  0  0  0  0  0  0  0  0
  -28.7140   -3.0920  -29.2650 C   0  0  0  0  0  0  0  0  0  0  0  0
  -28.6800   -8.0010  -28.9300 C   0  0  2  0  0  0  0  0  0  0  0  0
  -27.3140   -7.4230  -28.6610 C   0  0  0  0  0  0  0  0  0  0  0  0
  -26.7310   -8.2050  -27.4930 C   0  0  0  0  0  0  0  0  0  0  0  0
  -27.9680   -8.8660  -26.8940 C   0  0  0  0  0  0  0  0  0  0  0  0
  -28.6540   -9.3250  -28.1760 C   0  0  0  0  0  0  0  0  0  0  0  0
  -27.9460   -2.9600  -27.9770 C   0  0  0  0  0  0  0  0  0  0  0  0
  1  2  2  0
  1  6  1  0
  1  3  1  0
  2  4  1  0
 10  3  1  6
  4  5  2  0
  5  6  1  0
  6  7  1  0
  7  9  1  0
  7  8  2  0
 10 11  1  0
 10 14  1  0
 11 12  1  0
 12 13  1  0
 13 14  1  0
  9 15  1  0
M  END
>  <name>  (729) 
Car Nac Nd0 Car Nac Nac Cs2 .=O Cs3 C3r C3r C3r C3r C3r Cs3

>  <indices>  (729) 
[0, 1, 2]

>  <tasks>  (729) 
probe_placing close_aromatic_ring close_aromatic_ring close_aromatic_ring ring_built build_to_Nac build_DB_to_Cs2 build_SB_to_Cs2 build_to_Nd0 close_aliphatic_ring close_aliphatic_ring close_aliphatic_ring close_aliphatic_ring

>  <prot_clashes>  (729) 
5

>  <NBS phar>  (729) 
0.24000000000000005

>  <NBS_non-phar>  (729) 
0.6032965342203777

>  <NBS>  (729) 
0.8432965342203778

>  <source_stage>  (729) 
scored

>  <source_iter>  (729) 
12

>  <source_parent_mol>  (729) 
0

>  <source_scenario>  (729) 
1 2 3 1 7 1 0 8 4 4 3 0

>  <source_rank_in_scored_call>  (729) 
32

>  <source_current_task>  (729) 
no_task

>  <scenario>  (729) 
1 2 3 1 7 1 0 8 4 4 3

>  <protected_ring_attachments>  (729) 
3,1,0,2|1,0,2;4,5,0,2|5,0,2;11,10,9,2|10,9,2;12,13,9,2|13,9,2

>  <current_task>  (729) 
no_task

>  <rotatable_bond_torsions>  (729) 
1,0,2,9;0,2,9,10;0,5,6,8

>  <reason_to_skip>  (729) 
global_duplicate

>  <global_duplicate_rmsd>  (729) 
0.0

>  <global_duplicate_old_source_iter>  (729) 
11

>  <global_duplicate_old_source_parent_mol>  (729) 
3

>  <global_duplicate_old_index>  (729) 
NA

>  <global_duplicate_rotatable_bond_torsions>  (729) 
1,0,2,9;0,2,9,10;0,5,6,8

>  <global_duplicate_old_rotatable_bond_torsions>  (729) 
1,0,2,9;0,2,9,10;0,5,6,8

>  <global_duplicate_last_growth_torsion>  (729) 
(10, 11, 12, 13)

>  <global_duplicate_protected_ring_attachments>  (729) 
3,1,0,2|1,0,2;4,5,0,2|5,0,2;11,10,9,2|10,9,2;12,13,9,2|13,9,2

>  <global_duplicate_old_last_growth_torsion>  (729) 
(10, 11, 12, 13)

>  <global_duplicate_old_protected_ring_attachments>  (729) 
3,1,0,2|1,0,2;4,5,0,2|5,0,2;11,10,9,2|10,9,2;12,13,9,2|13,9,2

$$$$

     RDKit          3D

 15 16  0  0  0  0  0  0  0  0999 V2000
  -28.5510   -6.5390  -31.0200 C   0  0  0  0  0  0  0  0  0  0  0  0
  -27.8240   -6.6670  -32.1680 N   0  0  0  0  0  0  0  0  0  0  0  0
  -29.1870   -7.7410  -30.3810 N   0  0  0  0  0  0  0  0  0  0  0  0
  -27.3400   -5.4610  -32.5040 C   0  0  0  0  0  0  0  0  0  0  0  0
  -27.7740   -4.5890  -31.5510 N   0  0  0  0  0  0  0  0  0  0  0  0
  -28.5000   -5.2400  -30.6620 N   0  0  0  0  0  0  0  0  0  0  0  0
  -29.0760   -4.6690  -29.5440 C   0  0  0  0  0  0  0  0  0  0  0  0
  -29.7920   -5.2550  -28.7480 O   0  0  0  0  0  0  0  0  0  0  0  0
  -28.7270   -3.2230  -29.1240 C   0  0  0  0  0  0  0  0  0  0  0  0
  -28.6650   -8.1430  -29.0470 C   0  0  2  0  0  0  0  0  0  0  0  0
  -27.3010   -7.5720  -28.7570 C   0  0  0  0  0  0  0  0  0  0  0  0
  -26.7060   -8.4100  -27.6360 C   0  0  0  0  0  0  0  0  0  0  0  0
  -27.9350   -9.1080  -27.0630 C   0  0  0  0  0  0  0  0  0  0  0  0
  -28.6280   -9.5040  -28.3620 C   0  0  0  0  0  0  0  0  0  0  0  0
  -27.5700   -3.1860  -28.1360 C   0  0  0  0  0  0  0  0  0  0  0  0
  1  2  2  0
  1  6  1  0
  1  3  1  0
  2  4  1  0
 10  3  1  6
  4  5  2  0
  5  6  1  0
  6  7  1  0
  7  9  1  0
  7  8  2  0
 10 11  1  0
 10 14  1  0
 11 12  1  0
 12 13  1  0
 13 14  1  0
  9 15  1  0
M  END
>  <name>  (730) 
Car Nac Nd0 Car Nac Nac Cs2 .=O Cs3 C3r C3r C3r C3r C3r Cs3

>  <indices>  (730) 
[0, 1, 2]

>  <tasks>  (730) 
probe_placing close_aromatic_ring close_aromatic_ring close_aromatic_ring ring_built build_to_Nac build_DB_to_Cs2 build_SB_to_Cs2 build_to_Nd0 close_aliphatic_ring close_aliphatic_ring close_aliphatic_ring close_aliphatic_ring

>  <prot_clashes>  (730) 
5

>  <NBS phar>  (730) 
0.2

>  <NBS_non-phar>  (730) 
0.6432929356892904

>  <NBS>  (730) 
0.8432929356892904

>  <source_stage>  (730) 
scored

>  <source_iter>  (730) 
12

>  <source_parent_mol>  (730) 
0

>  <source_scenario>  (730) 
1 2 3 1 7 1 0 8 4 4 3 0

>  <source_rank_in_scored_call>  (730) 
33

>  <source_current_task>  (730) 
no_task

>  <scenario>  (730) 
1 2 3 1 7 1 0 8 4 4 3

>  <protected_ring_attachments>  (730) 
3,1,0,2|1,0,2;4,5,0,2|5,0,2;11,10,9,2|10,9,2;12,13,9,2|13,9,2

>  <current_task>  (730) 
no_task

>  <rotatable_bond_torsions>  (730) 
1,0,2,9;0,2,9,10;0,5,6,8

>  <reason_to_skip>  (730) 
global_duplicate

>  <global_duplicate_rmsd>  (730) 
0.0

>  <global_duplicate_old_source_iter>  (730) 
11

>  <global_duplicate_old_source_parent_mol>  (730) 
3

>  <global_duplicate_old_index>  (730) 
NA

>  <global_duplicate_rotatable_bond_torsions>  (730) 
1,0,2,9;0,2,9,10;0,5,6,8

>  <global_duplicate_old_rotatable_bond_torsions>  (730) 
1,0,2,9;0,2,9,10;0,5,6,8

>  <global_duplicate_last_growth_torsion>  (730) 
(10, 11, 12, 13)

>  <global_duplicate_protected_ring_attachments>  (730) 
3,1,0,2|1,0,2;4,5,0,2|5,0,2;11,10,9,2|10,9,2;12,13,9,2|13,9,2

>  <global_duplicate_old_last_growth_torsion>  (730) 
(10, 11, 12, 13)

>  <global_duplicate_old_protected_ring_attachments>  (730) 
3,1,0,2|1,0,2;4,5,0,2|5,0,2;11,10,9,2|10,9,2;12,13,9,2|13,9,2

$$$$

     RDKit          3D

 15 16  0  0  0  0  0  0  0  0999 V2000
  -28.5410   -6.3510  -30.9640 C   0  0  0  0  0  0  0  0  0  0  0  0
  -27.8180   -6.4210  -32.1190 N   0  0  0  0  0  0  0  0  0  0  0  0
  -29.1940   -7.5810  -30.3980 N   0  0  0  0  0  0  0  0  0  0  0  0
  -27.3170   -5.2030  -32.3830 C   0  0  0  0  0  0  0  0  0  0  0  0
  -27.7370   -4.3840  -31.3790 N   0  0  0  0  0  0  0  0  0  0  0  0
  -28.4710   -5.0770  -30.5290 N   0  0  0  0  0  0  0  0  0  0  0  0
  -29.0380   -4.5660  -29.3780 C   0  0  0  0  0  0  0  0  0  0  0  0
  -29.7610   -5.1890  -28.6170 O   0  0  0  0  0  0  0  0  0  0  0  0
  -28.6680   -3.1530  -28.8710 C   0  0  0  0  0  0  0  0  0  0  0  0
  -28.6770   -8.0690  -29.0910 C   0  0  2  0  0  0  0  0  0  0  0  0
  -27.3040   -7.5370  -28.7700 C   0  0  0  0  0  0  0  0  0  0  0  0
  -26.7200   -8.4490  -27.7020 C   0  0  0  0  0  0  0  0  0  0  0  0
  -27.9590   -9.1630  -27.1700 C   0  0  0  0  0  0  0  0  0  0  0  0
  -28.6580   -9.4690  -28.4900 C   0  0  0  0  0  0  0  0  0  0  0  0
  -29.1250   -2.0940  -29.8910 C   0  0  0  0  0  0  0  0  0  0  0  0
  1  2  2  0
  1  6  1  0
  1  3  1  0
  2  4  1  0
 10  3  1  6
  4  5  2  0
  5  6  1  0
  6  7  1  0
  7  9  1  0
  7  8  2  0
 10 11  1  0
 10 14  1  0
 11 12  1  0
 12 13  1  0
 13 14  1  0
  9 15  1  0
M  END
>  <name>  (731) 
Car Nac Nd0 Car Nac Nac Cs2 .=O Cs3 C3r C3r C3r C3r C3r Cs3

>  <indices>  (731) 
[0, 1, 2]

>  <tasks>  (731) 
probe_placing close_aromatic_ring close_aromatic_ring close_aromatic_ring ring_built build_to_Nac build_DB_to_Cs2 build_SB_to_Cs2 build_to_Nd0 close_aliphatic_ring close_aliphatic_ring close_aliphatic_ring close_aliphatic_ring

>  <prot_clashes>  (731) 
3

>  <NBS phar>  (731) 
0.22000000000000003

>  <NBS_non-phar>  (731) 
0.5795431137084961

>  <NBS>  (731) 
0.7995431137084961

>  <source_stage>  (731) 
scored

>  <source_iter>  (731) 
12

>  <source_parent_mol>  (731) 
0

>  <source_scenario>  (731) 
1 2 3 1 7 1 0 8 4 4 3 0

>  <source_rank_in_scored_call>  (731) 
66

>  <source_current_task>  (731) 
no_task

>  <scenario>  (731) 
1 2 3 1 7 1 0 8 4 4 3

>  <protected_ring_attachments>  (731) 
3,1,0,2|1,0,2;4,5,0,2|5,0,2;11,10,9,2|10,9,2;12,13,9,2|13,9,2

>  <current_task>  (731) 
no_task

>  <rotatable_bond_torsions>  (731) 
1,0,2,9;0,2,9,10;0,5,6,8

>  <reason_to_skip>  (731) 
global_duplicate

>  <global_duplicate_rmsd>  (731) 
0.0

>  <global_duplicate_old_source_iter>  (731) 
11

>  <global_duplicate_old_source_parent_mol>  (731) 
3

>  <global_duplicate_old_index>  (731) 
NA

>  <global_duplicate_rotatable_bond_torsions>  (731) 
1,0,2,9;0,2,9,10;0,5,6,8

>  <global_duplicate_old_rotatable_bond_torsions>  (731) 
1,0,2,9;0,2,9,10;0,5,6,8

>  <global_duplicate_last_growth_torsion>  (731) 
(10, 11, 12, 13)

>  <global_duplicate_protected_ring_attachments>  (731) 
3,1,0,2|1,0,2;4,5,0,2|5,0,2;11,10,9,2|10,9,2;12,13,9,2|13,9,2

>  <global_duplicate_old_last_growth_torsion>  (731) 
(10, 11, 12, 13)

>  <global_duplicate_old_protected_ring_attachments>  (731) 
3,1,0,2|1,0,2;4,5,0,2|5,0,2;11,10,9,2|10,9,2;12,13,9,2|13,9,2

$$$$

     RDKit          3D

 15 16  0  0  0  0  0  0  0  0999 V2000
  -28.5370   -6.3800  -30.9610 C   0  0  0  0  0  0  0  0  0  0  0  0
  -27.8110   -6.4590  -32.1150 N   0  0  0  0  0  0  0  0  0  0  0  0
  -29.1920   -7.6050  -30.3880 N   0  0  0  0  0  0  0  0  0  0  0  0
  -27.3080   -5.2440  -32.3860 C   0  0  0  0  0  0  0  0  0  0  0  0
  -27.7290   -4.4180  -31.3880 N   0  0  0  0  0  0  0  0  0  0  0  0
  -28.4660   -5.1030  -30.5350 N   0  0  0  0  0  0  0  0  0  0  0  0
  -29.0340   -4.5840  -29.3880 C   0  0  0  0  0  0  0  0  0  0  0  0
  -29.7590   -5.2000  -28.6250 O   0  0  0  0  0  0  0  0  0  0  0  0
  -28.6630   -3.1680  -28.8920 C   0  0  0  0  0  0  0  0  0  0  0  0
  -28.6780   -8.0850  -29.0760 C   0  0  2  0  0  0  0  0  0  0  0  0
  -27.3050   -7.5520  -28.7570 C   0  0  0  0  0  0  0  0  0  0  0  0
  -26.7240   -8.4570  -27.6810 C   0  0  0  0  0  0  0  0  0  0  0  0
  -27.9640   -9.1660  -27.1470 C   0  0  0  0  0  0  0  0  0  0  0  0
  -28.6620   -9.4810  -28.4650 C   0  0  0  0  0  0  0  0  0  0  0  0
  -29.1880   -2.0490  -29.8430 C   0  0  0  0  0  0  0  0  0  0  0  0
  1  2  2  0
  1  6  1  0
  1  3  1  0
  2  4  1  0
 10  3  1  6
  4  5  2  0
  5  6  1  0
  6  7  1  0
  7  9  1  0
  7  8  2  0
 10 11  1  0
 10 14  1  0
 11 12  1  0
 12 13  1  0
 13 14  1  0
  9 15  1  0
M  END
>  <name>  (732) 
Car Nac Nd0 Car Nac Nac Cs2 .=O Cs3 C3r C3r C3r C3r C3r Cs3

>  <indices>  (732) 
[0, 1, 2]

>  <tasks>  (732) 
probe_placing close_aromatic_ring close_aromatic_ring close_aromatic_ring ring_built build_to_Nac build_DB_to_Cs2 build_SB_to_Cs2 build_to_Nd0 close_aliphatic_ring close_aliphatic_ring close_aliphatic_ring close_aliphatic_ring

>  <prot_clashes>  (732) 
3

>  <NBS phar>  (732) 
0.22000000000000003

>  <NBS_non-phar>  (732) 
0.578904406229655

>  <NBS>  (732) 
0.7989044062296551

>  <source_stage>  (732) 
scored

>  <source_iter>  (732) 
12

>  <source_parent_mol>  (732) 
0

>  <source_scenario>  (732) 
1 2 3 1 7 1 0 8 4 4 3 0

>  <source_rank_in_scored_call>  (732) 
67

>  <source_current_task>  (732) 
no_task

>  <scenario>  (732) 
1 2 3 1 7 1 0 8 4 4 3

>  <protected_ring_attachments>  (732) 
3,1,0,2|1,0,2;4,5,0,2|5,0,2;11,10,9,2|10,9,2;12,13,9,2|13,9,2

>  <current_task>  (732) 
no_task

>  <rotatable_bond_torsions>  (732) 
1,0,2,9;0,2,9,10;0,5,6,8

>  <reason_to_skip>  (732) 
global_duplicate

>  <global_duplicate_rmsd>  (732) 
0.0

>  <global_duplicate_old_source_iter>  (732) 
11

>  <global_duplicate_old_source_parent_mol>  (732) 
3

>  <global_duplicate_old_index>  (732) 
NA

>  <global_duplicate_rotatable_bond_torsions>  (732) 
1,0,2,9;0,2,9,10;0,5,6,8

>  <global_duplicate_old_rotatable_bond_torsions>  (732) 
1,0,2,9;0,2,9,10;0,5,6,8

>  <global_duplicate_last_growth_torsion>  (732) 
(10, 11, 12, 13)

>  <global_duplicate_protected_ring_attachments>  (732) 
3,1,0,2|1,0,2;4,5,0,2|5,0,2;11,10,9,2|10,9,2;12,13,9,2|13,9,2

>  <global_duplicate_old_last_growth_torsion>  (732) 
(10, 11, 12, 13)

>  <global_duplicate_old_protected_ring_attachments>  (732) 
3,1,0,2|1,0,2;4,5,0,2|5,0,2;11,10,9,2|10,9,2;12,13,9,2|13,9,2

$$$$

     RDKit          3D

 15 16  0  0  0  0  0  0  0  0999 V2000
  -28.5380   -6.3510  -30.9640 C   0  0  0  0  0  0  0  0  0  0  0  0
  -27.8180   -6.4290  -32.1200 N   0  0  0  0  0  0  0  0  0  0  0  0
  -29.1900   -7.5770  -30.3890 N   0  0  0  0  0  0  0  0  0  0  0  0
  -27.3160   -5.2130  -32.3930 C   0  0  0  0  0  0  0  0  0  0  0  0
  -27.7320   -4.3880  -31.3920 N   0  0  0  0  0  0  0  0  0  0  0  0
  -28.4660   -5.0740  -30.5360 N   0  0  0  0  0  0  0  0  0  0  0  0
  -29.0290   -4.5560  -29.3870 C   0  0  0  0  0  0  0  0  0  0  0  0
  -29.7510   -5.1740  -28.6210 O   0  0  0  0  0  0  0  0  0  0  0  0
  -28.6560   -3.1410  -28.8900 C   0  0  0  0  0  0  0  0  0  0  0  0
  -28.6710   -8.0580  -29.0800 C   0  0  2  0  0  0  0  0  0  0  0  0
  -27.2970   -7.5250  -28.7660 C   0  0  0  0  0  0  0  0  0  0  0  0
  -26.7110   -8.4320  -27.6940 C   0  0  0  0  0  0  0  0  0  0  0  0
  -27.9490   -9.1410  -27.1550 C   0  0  0  0  0  0  0  0  0  0  0  0
  -28.6520   -9.4550  -28.4710 C   0  0  0  0  0  0  0  0  0  0  0  0
  -29.1750   -2.1080  -29.8850 C   0  0  0  0  0  0  0  0  0  0  0  0
  1  2  2  0
  1  6  1  0
  1  3  1  0
  2  4  1  0
 10  3  1  6
  4  5  2  0
  5  6  1  0
  6  7  1  0
  7  9  1  0
  7  8  2  0
 10 11  1  0
 10 14  1  0
 11 12  1  0
 12 13  1  0
 13 14  1  0
  9 15  1  0
M  END
>  <name>  (733) 
Car Nac Nd0 Car Nac Nac Cs2 .=O Cs3 C3r C3r C3r C3r C3r Cs3

>  <indices>  (733) 
[0, 1, 2]

>  <tasks>  (733) 
probe_placing close_aromatic_ring close_aromatic_ring close_aromatic_ring ring_built build_to_Nac build_DB_to_Cs2 build_SB_to_Cs2 build_to_Nd0 close_aliphatic_ring close_aliphatic_ring close_aliphatic_ring close_aliphatic_ring

>  <prot_clashes>  (733) 
3

>  <NBS phar>  (733) 
0.22000000000000003

>  <NBS_non-phar>  (733) 
0.5762088775634766

>  <NBS>  (733) 
0.7962088775634766

>  <source_stage>  (733) 
scored

>  <source_iter>  (733) 
12

>  <source_parent_mol>  (733) 
0

>  <source_scenario>  (733) 
1 2 3 1 7 1 0 8 4 4 3 0

>  <source_rank_in_scored_call>  (733) 
73

>  <source_current_task>  (733) 
no_task

>  <scenario>  (733) 
1 2 3 1 7 1 0 8 4 4 3

>  <protected_ring_attachments>  (733) 
3,1,0,2|1,0,2;4,5,0,2|5,0,2;11,10,9,2|10,9,2;12,13,9,2|13,9,2

>  <current_task>  (733) 
no_task

>  <rotatable_bond_torsions>  (733) 
1,0,2,9;0,2,9,10;0,5,6,8

>  <reason_to_skip>  (733) 
global_duplicate

>  <global_duplicate_rmsd>  (733) 
0.0

>  <global_duplicate_old_source_iter>  (733) 
11

>  <global_duplicate_old_source_parent_mol>  (733) 
3

>  <global_duplicate_old_index>  (733) 
NA

>  <global_duplicate_rotatable_bond_torsions>  (733) 
1,0,2,9;0,2,9,10;0,5,6,8

>  <global_duplicate_old_rotatable_bond_torsions>  (733) 
1,0,2,9;0,2,9,10;0,5,6,8

>  <global_duplicate_last_growth_torsion>  (733) 
(10, 11, 12, 13)

>  <global_duplicate_protected_ring_attachments>  (733) 
3,1,0,2|1,0,2;4,5,0,2|5,0,2;11,10,9,2|10,9,2;12,13,9,2|13,9,2

>  <global_duplicate_old_last_growth_torsion>  (733) 
(10, 11, 12, 13)

>  <global_duplicate_old_protected_ring_attachments>  (733) 
3,1,0,2|1,0,2;4,5,0,2|5,0,2;11,10,9,2|10,9,2;12,13,9,2|13,9,2

$$$$

     RDKit          3D

 15 16  0  0  0  0  0  0  0  0999 V2000
  -28.5350   -6.4720  -30.9410 C   0  0  0  0  0  0  0  0  0  0  0  0
  -27.9230   -6.6290  -32.1500 N   0  0  0  0  0  0  0  0  0  0  0  0
  -29.2090   -7.6360  -30.2710 N   0  0  0  0  0  0  0  0  0  0  0  0
  -27.3730   -5.4570  -32.5060 C   0  0  0  0  0  0  0  0  0  0  0  0
  -27.6500   -4.5770  -31.5020 N   0  0  0  0  0  0  0  0  0  0  0  0
  -28.3480   -5.1900  -30.5650 N   0  0  0  0  0  0  0  0  0  0  0  0
  -28.7770   -4.6040  -29.3900 C   0  0  0  0  0  0  0  0  0  0  0  0
  -29.4670   -5.1520  -28.5460 O   0  0  0  0  0  0  0  0  0  0  0  0
  -28.2760   -3.2020  -28.9760 C   0  0  0  0  0  0  0  0  0  0  0  0
  -28.6090   -8.1110  -28.9950 C   0  0  2  0  0  0  0  0  0  0  0  0
  -27.1830   -7.6590  -28.8170 C   0  0  0  0  0  0  0  0  0  0  0  0
  -26.5640   -8.5700  -27.7670 C   0  0  0  0  0  0  0  0  0  0  0  0
  -27.7920   -9.1820  -27.1020 C   0  0  0  0  0  0  0  0  0  0  0  0
  -28.6240   -9.4880  -28.3420 C   0  0  0  0  0  0  0  0  0  0  0  0
  -29.1850   -2.4310  -28.0460 C   0  0  0  0  0  0  0  0  0  0  0  0
  1  2  2  0
  1  6  1  0
  1  3  1  0
  2  4  1  0
 10  3  1  6
  4  5  2  0
  5  6  1  0
  6  7  1  0
  7  9  1  0
  7  8  2  0
 10 11  1  0
 10 14  1  0
 11 12  1  0
 12 13  1  0
 13 14  1  0
  9 15  1  0
M  END
>  <name>  (734) 
Car Nac Nd0 Car Nac Nac Cs2 .=O Cs3 C3r C3r C3r C3r C3r Cs3

>  <indices>  (734) 
[0, 1, 2]

>  <tasks>  (734) 
probe_placing close_aromatic_ring close_aromatic_ring close_aromatic_ring ring_built build_to_Nac build_DB_to_Cs2 build_SB_to_Cs2 build_to_Nd0 close_aliphatic_ring close_aliphatic_ring close_aliphatic_ring close_aliphatic_ring

>  <prot_clashes>  (734) 
9

>  <NBS phar>  (734) 
0.22000000000000003

>  <NBS_non-phar>  (734) 
0.5522700627644856

>  <NBS>  (734) 
0.7722700627644856

>  <source_stage>  (734) 
scored

>  <source_iter>  (734) 
12

>  <source_parent_mol>  (734) 
0

>  <source_scenario>  (734) 
1 2 3 1 7 1 0 8 4 4 3 0

>  <source_rank_in_scored_call>  (734) 
93

>  <source_current_task>  (734) 
no_task

>  <scenario>  (734) 
1 2 3 1 7 1 0 8 4 4 3

>  <protected_ring_attachments>  (734) 
3,1,0,2|1,0,2;4,5,0,2|5,0,2;11,10,9,2|10,9,2;12,13,9,2|13,9,2

>  <current_task>  (734) 
no_task

>  <rotatable_bond_torsions>  (734) 
1,0,2,9;0,2,9,10;0,5,6,8

>  <reason_to_skip>  (734) 
global_duplicate

>  <global_duplicate_rmsd>  (734) 
0.0

>  <global_duplicate_old_source_iter>  (734) 
11

>  <global_duplicate_old_source_parent_mol>  (734) 
3

>  <global_duplicate_old_index>  (734) 
NA

>  <global_duplicate_rotatable_bond_torsions>  (734) 
1,0,2,9;0,2,9,10;0,5,6,8

>  <global_duplicate_old_rotatable_bond_torsions>  (734) 
1,0,2,9;0,2,9,10;0,5,6,8

>  <global_duplicate_last_growth_torsion>  (734) 
(10, 11, 12, 13)

>  <global_duplicate_protected_ring_attachments>  (734) 
3,1,0,2|1,0,2;4,5,0,2|5,0,2;11,10,9,2|10,9,2;12,13,9,2|13,9,2

>  <global_duplicate_old_last_growth_torsion>  (734) 
(10, 11, 12, 13)

>  <global_duplicate_old_protected_ring_attachments>  (734) 
3,1,0,2|1,0,2;4,5,0,2|5,0,2;11,10,9,2|10,9,2;12,13,9,2|13,9,2

$$$$

     RDKit          3D

 15 16  0  0  0  0  0  0  0  0999 V2000
  -28.5390   -6.4580  -30.9660 C   0  0  0  0  0  0  0  0  0  0  0  0
  -27.8790   -6.6420  -32.1470 N   0  0  0  0  0  0  0  0  0  0  0  0
  -29.2400   -7.6070  -30.2980 N   0  0  0  0  0  0  0  0  0  0  0  0
  -27.3150   -5.4780  -32.5070 C   0  0  0  0  0  0  0  0  0  0  0  0
  -27.6310   -4.5770  -31.5350 N   0  0  0  0  0  0  0  0  0  0  0  0
  -28.3660   -5.1680  -30.6120 N   0  0  0  0  0  0  0  0  0  0  0  0
  -28.8410   -4.5560  -29.4690 C   0  0  0  0  0  0  0  0  0  0  0  0
  -29.5640   -5.0850  -28.6400 O   0  0  0  0  0  0  0  0  0  0  0  0
  -28.3560   -3.1450  -29.0670 C   0  0  0  0  0  0  0  0  0  0  0  0
  -28.6910   -8.0530  -28.9880 C   0  0  2  0  0  0  0  0  0  0  0  0
  -27.2730   -7.5960  -28.7640 C   0  0  0  0  0  0  0  0  0  0  0  0
  -26.6960   -8.4830  -27.6700 C   0  0  0  0  0  0  0  0  0  0  0  0
  -27.9500   -9.0810  -27.0410 C   0  0  0  0  0  0  0  0  0  0  0  0
  -28.7320   -9.4150  -28.3060 C   0  0  0  0  0  0  0  0  0  0  0  0
  -29.3780   -2.0560  -29.2160 C   0  0  0  0  0  0  0  0  0  0  0  0
  1  2  2  0
  1  6  1  0
  1  3  1  0
  2  4  1  0
 10  3  1  6
  4  5  2  0
  5  6  1  0
  6  7  1  0
  7  9  1  0
  7  8  2  0
 10 11  1  0
 10 14  1  0
 11 12  1  0
 12 13  1  0
 13 14  1  0
  9 15  1  0
M  END
>  <name>  (735) 
Car Nac Nd0 Car Nac Nac Cs2 .=O Cs3 C3r C3r C3r C3r C3r Cs3

>  <indices>  (735) 
[0, 1, 2]

>  <tasks>  (735) 
probe_placing close_aromatic_ring close_aromatic_ring close_aromatic_ring ring_built build_to_Nac build_DB_to_Cs2 build_SB_to_Cs2 build_to_Nd0 close_aliphatic_ring close_aliphatic_ring close_aliphatic_ring close_aliphatic_ring

>  <prot_clashes>  (735) 
7

>  <NBS phar>  (735) 
0.22000000000000003

>  <NBS_non-phar>  (735) 
0.5502927144368489

>  <NBS>  (735) 
0.770292714436849

>  <source_stage>  (735) 
scored

>  <source_iter>  (735) 
12

>  <source_parent_mol>  (735) 
0

>  <source_scenario>  (735) 
1 2 3 1 7 1 0 8 4 4 3 0

>  <source_rank_in_scored_call>  (735) 
97

>  <source_current_task>  (735) 
no_task

>  <scenario>  (735) 
1 2 3 1 7 1 0 8 4 4 3

>  <protected_ring_attachments>  (735) 
3,1,0,2|1,0,2;4,5,0,2|5,0,2;11,10,9,2|10,9,2;12,13,9,2|13,9,2

>  <current_task>  (735) 
no_task

>  <rotatable_bond_torsions>  (735) 
1,0,2,9;0,2,9,10;0,5,6,8

>  <reason_to_skip>  (735) 
global_duplicate

>  <global_duplicate_rmsd>  (735) 
0.0

>  <global_duplicate_old_source_iter>  (735) 
11

>  <global_duplicate_old_source_parent_mol>  (735) 
3

>  <global_duplicate_old_index>  (735) 
NA

>  <global_duplicate_rotatable_bond_torsions>  (735) 
1,0,2,9;0,2,9,10;0,5,6,8

>  <global_duplicate_old_rotatable_bond_torsions>  (735) 
1,0,2,9;0,2,9,10;0,5,6,8

>  <global_duplicate_last_growth_torsion>  (735) 
(10, 11, 12, 13)

>  <global_duplicate_protected_ring_attachments>  (735) 
3,1,0,2|1,0,2;4,5,0,2|5,0,2;11,10,9,2|10,9,2;12,13,9,2|13,9,2

>  <global_duplicate_old_last_growth_torsion>  (735) 
(10, 11, 12, 13)

>  <global_duplicate_old_protected_ring_attachments>  (735) 
3,1,0,2|1,0,2;4,5,0,2|5,0,2;11,10,9,2|10,9,2;12,13,9,2|13,9,2

$$$$

     RDKit          3D

 15 16  0  0  0  0  0  0  0  0999 V2000
  -28.5190   -6.4380  -30.9380 C   0  0  0  0  0  0  0  0  0  0  0  0
  -27.9110   -6.6320  -32.1440 N   0  0  0  0  0  0  0  0  0  0  0  0
  -29.2380   -7.5680  -30.2570 N   0  0  0  0  0  0  0  0  0  0  0  0
  -27.3160   -5.4850  -32.5120 C   0  0  0  0  0  0  0  0  0  0  0  0
  -27.5630   -4.5850  -31.5190 N   0  0  0  0  0  0  0  0  0  0  0  0
  -28.2850   -5.1600  -30.5770 N   0  0  0  0  0  0  0  0  0  0  0  0
  -28.6940   -4.5450  -29.4100 C   0  0  0  0  0  0  0  0  0  0  0  0
  -29.4060   -5.0560  -28.5610 O   0  0  0  0  0  0  0  0  0  0  0  0
  -28.1420   -3.1570  -29.0100 C   0  0  0  0  0  0  0  0  0  0  0  0
  -28.6600   -8.0510  -28.9740 C   0  0  2  0  0  0  0  0  0  0  0  0
  -27.2180   -7.6500  -28.7970 C   0  0  0  0  0  0  0  0  0  0  0  0
  -26.6360   -8.5710  -27.7350 C   0  0  0  0  0  0  0  0  0  0  0  0
  -27.8880   -9.1290  -27.0660 C   0  0  0  0  0  0  0  0  0  0  0  0
  -28.7280   -9.4180  -28.3050 C   0  0  0  0  0  0  0  0  0  0  0  0
  -29.2130   -2.1660  -28.6360 C   0  0  0  0  0  0  0  0  0  0  0  0
  1  2  2  0
  1  6  1  0
  1  3  1  0
  2  4  1  0
 10  3  1  6
  4  5  2  0
  5  6  1  0
  6  7  1  0
  7  9  1  0
  7  8  2  0
 10 11  1  0
 10 14  1  0
 11 12  1  0
 12 13  1  0
 13 14  1  0
  9 15  1  0
M  END
>  <name>  (736) 
Car Nac Nd0 Car Nac Nac Cs2 .=O Cs3 C3r C3r C3r C3r C3r Cs3

>  <indices>  (736) 
[0, 1, 2]

>  <tasks>  (736) 
probe_placing close_aromatic_ring close_aromatic_ring close_aromatic_ring ring_built build_to_Nac build_DB_to_Cs2 build_SB_to_Cs2 build_to_Nd0 close_aliphatic_ring close_aliphatic_ring close_aliphatic_ring close_aliphatic_ring

>  <prot_clashes>  (736) 
7

>  <NBS phar>  (736) 
0.22000000000000003

>  <NBS_non-phar>  (736) 
0.5432136535644532

>  <NBS>  (736) 
0.7632136535644531

>  <source_stage>  (736) 
scored

>  <source_iter>  (736) 
12

>  <source_parent_mol>  (736) 
0

>  <source_scenario>  (736) 
1 2 3 1 7 1 0 8 4 4 3 0

>  <source_rank_in_scored_call>  (736) 
108

>  <source_current_task>  (736) 
no_task

>  <scenario>  (736) 
1 2 3 1 7 1 0 8 4 4 3

>  <protected_ring_attachments>  (736) 
3,1,0,2|1,0,2;4,5,0,2|5,0,2;11,10,9,2|10,9,2;12,13,9,2|13,9,2

>  <current_task>  (736) 
no_task

>  <rotatable_bond_torsions>  (736) 
1,0,2,9;0,2,9,10;0,5,6,8

>  <reason_to_skip>  (736) 
global_duplicate

>  <global_duplicate_rmsd>  (736) 
0.0

>  <global_duplicate_old_source_iter>  (736) 
11

>  <global_duplicate_old_source_parent_mol>  (736) 
3

>  <global_duplicate_old_index>  (736) 
NA

>  <global_duplicate_rotatable_bond_torsions>  (736) 
1,0,2,9;0,2,9,10;0,5,6,8

>  <global_duplicate_old_rotatable_bond_torsions>  (736) 
1,0,2,9;0,2,9,10;0,5,6,8

>  <global_duplicate_last_growth_torsion>  (736) 
(10, 11, 12, 13)

>  <global_duplicate_protected_ring_attachments>  (736) 
3,1,0,2|1,0,2;4,5,0,2|5,0,2;11,10,9,2|10,9,2;12,13,9,2|13,9,2

>  <global_duplicate_old_last_growth_torsion>  (736) 
(10, 11, 12, 13)

>  <global_duplicate_old_protected_ring_attachments>  (736) 
3,1,0,2|1,0,2;4,5,0,2|5,0,2;11,10,9,2|10,9,2;12,13,9,2|13,9,2

$$$$

     RDKit          3D

 15 16  0  0  0  0  0  0  0  0999 V2000
  -28.5550   -5.9350  -30.5620 C   0  0  0  0  0  0  0  0  0  0  0  0
  -27.7750   -5.8330  -31.6780 N   0  0  0  0  0  0  0  0  0  0  0  0
  -29.1950   -7.2450  -30.1980 N   0  0  0  0  0  0  0  0  0  0  0  0
  -27.3000   -4.5790  -31.7530 C   0  0  0  0  0  0  0  0  0  0  0  0
  -27.7930   -3.9120  -30.6720 N   0  0  0  0  0  0  0  0  0  0  0  0
  -28.5450   -4.7290  -29.9600 N   0  0  0  0  0  0  0  0  0  0  0  0
  -29.1820   -4.3900  -28.7820 C   0  0  0  0  0  0  0  0  0  0  0  0
  -29.9210   -5.1260  -28.1490 O   0  0  0  0  0  0  0  0  0  0  0  0
  -28.8810   -3.0490  -28.0760 C   0  0  0  0  0  0  0  0  0  0  0  0
  -28.7260   -7.8900  -28.9420 C   0  0  2  0  0  0  0  0  0  0  0  0
  -27.3880   -7.3720  -28.4830 C   0  0  0  0  0  0  0  0  0  0  0  0
  -26.8270   -8.4040  -27.5160 C   0  0  0  0  0  0  0  0  0  0  0  0
  -28.0670   -9.2120  -27.1480 C   0  0  0  0  0  0  0  0  0  0  0  0
  -28.6930   -9.3570  -28.5310 C   0  0  0  0  0  0  0  0  0  0  0  0
  -26.3970   -4.0190  -32.8240 C   0  0  0  0  0  0  0  0  0  0  0  0
  1  2  2  0
  1  3  1  0
  1  6  1  0
  2  4  1  0
 10  3  1  6
  4 15  1  0
  4  5  2  0
  5  6  1  0
  6  7  1  0
  7  8  2  0
  7  9  1  0
 10 14  1  0
 10 11  1  0
 11 12  1  0
 12 13  1  0
 13 14  1  0
M  END
>  <name>  (737) 
Car Nac Nd0 Car Nac Nac Cs2 .=O Cs3 C3r C3r C3r C3r C3r Cs3

>  <indices>  (737) 
[0, 1, 2]

>  <tasks>  (737) 
probe_placing close_aromatic_ring close_aromatic_ring close_aromatic_ring ring_built build_to_Nac build_DB_to_Cs2 build_SB_to_Cs2 build_to_Nd0 close_aliphatic_ring close_aliphatic_ring close_aliphatic_ring close_aliphatic_ring

>  <prot_clashes>  (737) 
10

>  <NBS phar>  (737) 
0.13999999999999999

>  <NBS_non-phar>  (737) 
0.6191595077514649

>  <NBS>  (737) 
0.7591595077514649

>  <source_stage>  (737) 
scored

>  <source_iter>  (737) 
12

>  <source_parent_mol>  (737) 
0

>  <source_scenario>  (737) 
1 2 3 1 7 1 0 8 4 4 3 0

>  <source_rank_in_scored_call>  (737) 
109

>  <source_current_task>  (737) 
no_task

>  <scenario>  (737) 
1 2 3 1 7 1 0 8 4 4 3

>  <protected_ring_attachments>  (737) 
3,1,0,2|1,0,2;4,5,0,2|5,0,2;11,10,9,2|10,9,2;12,13,9,2|13,9,2

>  <current_task>  (737) 
no_task

>  <rotatable_bond_torsions>  (737) 
1,0,2,9;0,2,9,10;0,5,6,8

>  <reason_to_skip>  (737) 
global_duplicate

>  <global_duplicate_rmsd>  (737) 
0.0

>  <global_duplicate_old_source_iter>  (737) 
11

>  <global_duplicate_old_source_parent_mol>  (737) 
3

>  <global_duplicate_old_index>  (737) 
NA

>  <global_duplicate_rotatable_bond_torsions>  (737) 
1,0,2,9;0,2,9,10;0,5,6,8

>  <global_duplicate_old_rotatable_bond_torsions>  (737) 
1,0,2,9;0,2,9,10;0,5,6,8

>  <global_duplicate_last_growth_torsion>  (737) 
(10, 11, 12, 13)

>  <global_duplicate_protected_ring_attachments>  (737) 
3,1,0,2|1,0,2;4,5,0,2|5,0,2;11,10,9,2|10,9,2;12,13,9,2|13,9,2

>  <global_duplicate_old_last_growth_torsion>  (737) 
(10, 11, 12, 13)

>  <global_duplicate_old_protected_ring_attachments>  (737) 
3,1,0,2|1,0,2;4,5,0,2|5,0,2;11,10,9,2|10,9,2;12,13,9,2|13,9,2

$$$$

     RDKit          3D

 15 16  0  0  0  0  0  0  0  0999 V2000
  -28.5430   -6.4420  -30.9260 C   0  0  0  0  0  0  0  0  0  0  0  0
  -27.9660   -6.6090  -32.1520 N   0  0  0  0  0  0  0  0  0  0  0  0
  -29.2390   -7.5880  -30.2490 N   0  0  0  0  0  0  0  0  0  0  0  0
  -27.3860   -5.4530  -32.5120 C   0  0  0  0  0  0  0  0  0  0  0  0
  -27.6090   -4.5730  -31.4960 N   0  0  0  0  0  0  0  0  0  0  0  0
  -28.3030   -5.1700  -30.5460 N   0  0  0  0  0  0  0  0  0  0  0  0
  -28.6830   -4.5800  -29.3570 C   0  0  0  0  0  0  0  0  0  0  0  0
  -29.3700   -5.1110  -28.4990 O   0  0  0  0  0  0  0  0  0  0  0  0
  -28.1260   -3.1980  -28.9440 C   0  0  0  0  0  0  0  0  0  0  0  0
  -28.6240   -8.0940  -28.9910 C   0  0  2  0  0  0  0  0  0  0  0  0
  -27.1790   -7.6900  -28.8450 C   0  0  0  0  0  0  0  0  0  0  0  0
  -26.5650   -8.6300  -27.8180 C   0  0  0  0  0  0  0  0  0  0  0  0
  -27.7960   -9.2070  -27.1270 C   0  0  0  0  0  0  0  0  0  0  0  0
  -28.6680   -9.4740  -28.3480 C   0  0  0  0  0  0  0  0  0  0  0  0
  -29.1870   -2.3350  -28.3390 C   0  0  0  0  0  0  0  0  0  0  0  0
  1  2  2  0
  1  6  1  0
  1  3  1  0
  2  4  1  0
 10  3  1  6
  4  5  2  0
  5  6  1  0
  6  7  1  0
  7  9  1  0
  7  8  2  0
 10 11  1  0
 10 14  1  0
 11 12  1  0
 12 13  1  0
 13 14  1  0
  9 15  1  0
M  END
>  <name>  (738) 
Car Nac Nd0 Car Nac Nac Cs2 .=O Cs3 C3r C3r C3r C3r C3r Cs3

>  <indices>  (738) 
[0, 1, 2]

>  <tasks>  (738) 
probe_placing close_aromatic_ring close_aromatic_ring close_aromatic_ring ring_built build_to_Nac build_DB_to_Cs2 build_SB_to_Cs2 build_to_Nd0 close_aliphatic_ring close_aliphatic_ring close_aliphatic_ring close_aliphatic_ring

>  <prot_clashes>  (738) 
6

>  <NBS phar>  (738) 
0.22000000000000003

>  <NBS_non-phar>  (738) 
0.5362739562988281

>  <NBS>  (738) 
0.7562739562988281

>  <source_stage>  (738) 
scored

>  <source_iter>  (738) 
12

>  <source_parent_mol>  (738) 
0

>  <source_scenario>  (738) 
1 2 3 1 7 1 0 8 4 4 3 0

>  <source_rank_in_scored_call>  (738) 
111

>  <source_current_task>  (738) 
no_task

>  <scenario>  (738) 
1 2 3 1 7 1 0 8 4 4 3

>  <protected_ring_attachments>  (738) 
3,1,0,2|1,0,2;4,5,0,2|5,0,2;11,10,9,2|10,9,2;12,13,9,2|13,9,2

>  <current_task>  (738) 
no_task

>  <rotatable_bond_torsions>  (738) 
1,0,2,9;0,2,9,10;0,5,6,8

>  <reason_to_skip>  (738) 
global_duplicate

>  <global_duplicate_rmsd>  (738) 
0.0

>  <global_duplicate_old_source_iter>  (738) 
11

>  <global_duplicate_old_source_parent_mol>  (738) 
3

>  <global_duplicate_old_index>  (738) 
NA

>  <global_duplicate_rotatable_bond_torsions>  (738) 
1,0,2,9;0,2,9,10;0,5,6,8

>  <global_duplicate_old_rotatable_bond_torsions>  (738) 
1,0,2,9;0,2,9,10;0,5,6,8

>  <global_duplicate_last_growth_torsion>  (738) 
(10, 11, 12, 13)

>  <global_duplicate_protected_ring_attachments>  (738) 
3,1,0,2|1,0,2;4,5,0,2|5,0,2;11,10,9,2|10,9,2;12,13,9,2|13,9,2

>  <global_duplicate_old_last_growth_torsion>  (738) 
(10, 11, 12, 13)

>  <global_duplicate_old_protected_ring_attachments>  (738) 
3,1,0,2|1,0,2;4,5,0,2|5,0,2;11,10,9,2|10,9,2;12,13,9,2|13,9,2

$$$$

     RDKit          3D

 14 15  0  0  0  0  0  0  0  0999 V2000
  -28.5660   -6.7200  -31.0240 C   0  0  0  0  0  0  0  0  0  0  0  0
  -28.0690   -6.6340  -32.2910 N   0  0  0  0  0  0  0  0  0  0  0  0
  -29.0380   -8.0370  -30.4800 N   0  0  0  0  0  0  0  0  0  0  0  0
  -27.6880   -5.3640  -32.5150 C   0  0  0  0  0  0  0  0  0  0  0  0
  -27.9560   -4.6710  -31.3720 N   0  0  0  0  0  0  0  0  0  0  0  0
  -28.4820   -5.4900  -30.4790 N   0  0  0  0  0  0  0  0  0  0  0  0
  -28.8500   -5.1280  -29.1990 C   0  0  0  0  0  0  0  0  0  0  0  0
  -29.3850   -5.8650  -28.3880 O   0  0  0  0  0  0  0  0  0  0  0  0
  -28.4650   -3.7440  -28.6240 C   0  0  0  0  0  0  0  0  0  0  0  0
  -28.2640   -8.6400  -29.6880 C   0  0  1  0  0  0  0  0  0  0  0  0
  -27.0040   -8.0750  -29.0590 C   0  0  0  0  0  0  0  0  0  0  0  0
  -27.0950   -8.3570  -27.7270 O   0  0  0  0  0  0  0  0  0  0  0  0
  -28.0740   -9.2090  -27.4140 C   0  0  0  0  0  0  0  0  0  0  0  0
  -28.5910   -9.7480  -28.7390 C   0  0  0  0  0  0  0  0  0  0  0  0
  1  2  2  0
  1  3  1  0
  1  6  1  0
  2  4  1  0
 10  3  1  1
  4  5  2  0
  5  6  1  0
  6  7  1  0
  7  9  1  0
  7  8  2  0
 10 11  1  0
 10 14  1  0
 11 12  1  0
 12 13  1  0
 13 14  1  0
M  END
>  <name>  (739) 
Car Nac Nd0 Car Nac Nac Cs2 .=O Cs3 C3r C3r O_a C3r C3r

>  <indices>  (739) 
[0, 1, 2]

>  <tasks>  (739) 
probe_placing close_aromatic_ring close_aromatic_ring close_aromatic_ring ring_built build_to_Nac build_DB_to_Cs2 build_SB_to_Cs2 build_to_Nd0 close_aliphatic_ring close_aliphatic_ring close_aliphatic_ring

>  <prot_clashes>  (739) 
2

>  <NBS phar>  (739) 
0.22000000000000003

>  <NBS_non-phar>  (739) 
0.4916156700679234

>  <NBS>  (739) 
0.7116156700679235

>  <source_stage>  (739) 
scored

>  <source_iter>  (739) 
11

>  <source_parent_mol>  (739) 
1

>  <source_scenario>  (739) 
1 2 3 1 7 1 0 8 4 8 1

>  <source_rank_in_scored_call>  (739) 
1

>  <source_current_task>  (739) 
close_aliphatic_ring

>  <scenario>  (739) 
1 2 3 1 7 1 0 8 4 8

>  <protected_ring_attachments>  (739) 
3,1,0,2|1,0,2;4,5,0,2|5,0,2

>  <current_task>  (739) 
no_task

>  <rotatable_bond_torsions>  (739) 
1,0,2,9;0,2,9,10;0,5,6,8;2,9,10,11;9,10,11,12

$$$$

     RDKit          3D

 15 16  0  0  0  0  0  0  0  0999 V2000
  -28.6480   -6.6750  -31.1350 C   0  0  0  0  0  0  0  0  0  0  0  0
  -28.1300   -6.8030  -32.3900 N   0  0  0  0  0  0  0  0  0  0  0  0
  -29.1900   -7.8720  -30.4100 N   0  0  0  0  0  0  0  0  0  0  0  0
  -27.6860   -5.6000  -32.7940 C   0  0  0  0  0  0  0  0  0  0  0  0
  -27.9370   -4.7310  -31.7740 N   0  0  0  0  0  0  0  0  0  0  0  0
  -28.5140   -5.3820  -30.7790 N   0  0  0  0  0  0  0  0  0  0  0  0
  -28.8820   -4.8140  -29.5760 C   0  0  0  0  0  0  0  0  0  0  0  0
  -29.4630   -5.3960  -28.6750 O   0  0  0  0  0  0  0  0  0  0  0  0
  -28.4400   -3.3780  -29.2080 C   0  0  0  0  0  0  0  0  0  0  0  0
  -28.4560   -8.3830  -29.5200 C   0  0  1  0  0  0  0  0  0  0  0  0
  -27.1800   -7.7860  -28.9560 C   0  0  0  0  0  0  0  0  0  0  0  0
  -27.3030   -7.8590  -27.5990 O   0  0  0  0  0  0  0  0  0  0  0  0
  -28.3260   -8.6100  -27.1830 C   0  0  0  0  0  0  0  0  0  0  0  0
  -28.8490   -9.3190  -28.4220 C   0  0  0  0  0  0  0  0  0  0  0  0
  -28.8240   -2.9640  -27.8240 C   0  0  0  0  0  0  0  0  0  0  0  0
  1  2  2  0
  1  6  1  0
  1  3  1  0
  2  4  1  0
 10  3  1  1
  4  5  2  0
  5  6  1  0
  6  7  1  0
  7  9  1  0
  7  8  2  0
 10 11  1  0
 10 14  1  0
 11 12  1  0
 12 13  1  0
 13 14  1  0
  9 15  1  0
M  END
>  <name>  (740) 
Car Nac Nd0 Car Nac Nac Cs2 .=O Cs3 C3r C3r O_a C3r C3r Cs3

>  <indices>  (740) 
[0, 1, 2]

>  <tasks>  (740) 
probe_placing close_aromatic_ring close_aromatic_ring close_aromatic_ring ring_built build_to_Nac build_DB_to_Cs2 build_SB_to_Cs2 build_to_Nd0 close_aliphatic_ring close_aliphatic_ring close_aliphatic_ring close_aliphatic_ring

>  <prot_clashes>  (740) 
9

>  <NBS phar>  (740) 
0.22000000000000003

>  <NBS_non-phar>  (740) 
0.5916441599527995

>  <NBS>  (740) 
0.8116441599527995

>  <source_stage>  (740) 
scored

>  <source_iter>  (740) 
12

>  <source_parent_mol>  (740) 
1

>  <source_scenario>  (740) 
1 2 3 1 7 1 0 8 4 8 1 1

>  <source_rank_in_scored_call>  (740) 
0

>  <source_current_task>  (740) 
no_task

>  <scenario>  (740) 
1 2 3 1 7 1 0 8 4 8 1

>  <protected_ring_attachments>  (740) 
3,1,0,2|1,0,2;4,5,0,2|5,0,2;11,10,9,2|10,9,2;12,13,9,2|13,9,2

>  <current_task>  (740) 
no_task

>  <rotatable_bond_torsions>  (740) 
1,0,2,9;0,2,9,10;0,5,6,8

$$$$

     RDKit          3D

 15 16  0  0  0  0  0  0  0  0999 V2000
  -28.6490   -6.7200  -31.2050 C   0  0  0  0  0  0  0  0  0  0  0  0
  -28.1050   -6.8750  -32.4460 N   0  0  0  0  0  0  0  0  0  0  0  0
  -29.1780   -7.9060  -30.4520 N   0  0  0  0  0  0  0  0  0  0  0  0
  -27.6800   -5.6760  -32.8790 C   0  0  0  0  0  0  0  0  0  0  0  0
  -27.9690   -4.7810  -31.8910 N   0  0  0  0  0  0  0  0  0  0  0  0
  -28.5500   -5.4140  -30.8870 N   0  0  0  0  0  0  0  0  0  0  0  0
  -28.9530   -4.8180  -29.7090 C   0  0  0  0  0  0  0  0  0  0  0  0
  -29.5370   -5.3840  -28.8010 O   0  0  0  0  0  0  0  0  0  0  0  0
  -28.5490   -3.3610  -29.3780 C   0  0  0  0  0  0  0  0  0  0  0  0
  -28.4500   -8.3720  -29.5340 C   0  0  1  0  0  0  0  0  0  0  0  0
  -27.1980   -7.7300  -28.9670 C   0  0  0  0  0  0  0  0  0  0  0  0
  -27.3440   -7.7640  -27.6100 O   0  0  0  0  0  0  0  0  0  0  0  0
  -28.3580   -8.5240  -27.1890 C   0  0  0  0  0  0  0  0  0  0  0  0
  -28.8420   -9.2830  -28.4150 C   0  0  0  0  0  0  0  0  0  0  0  0
  -28.6070   -3.1480  -27.9310 C   0  0  0  0  0  0  0  0  0  0  0  0
  1  2  2  0
  1  6  1  0
  1  3  1  0
  2  4  1  0
 10  3  1  1
  4  5  2  0
  5  6  1  0
  6  7  1  0
  7  9  1  0
  7  8  2  0
 10 11  1  0
 10 14  1  0
 11 12  1  0
 12 13  1  0
 13 14  1  0
  9 15  1  0
M  END
>  <name>  (741) 
Car Nac Nd0 Car Nac Nac Cs2 .=O Cs3 C3r C3r O_a C3r C3r Cs3

>  <indices>  (741) 
[0, 1, 2]

>  <tasks>  (741) 
probe_placing close_aromatic_ring close_aromatic_ring close_aromatic_ring ring_built build_to_Nac build_DB_to_Cs2 build_SB_to_Cs2 build_to_Nd0 close_aliphatic_ring close_aliphatic_ring close_aliphatic_ring close_aliphatic_ring

>  <prot_clashes>  (741) 
9

>  <NBS phar>  (741) 
0.22000000000000003

>  <NBS_non-phar>  (741) 
0.5553244272867839

>  <NBS>  (741) 
0.7753244272867839

>  <source_stage>  (741) 
scored

>  <source_iter>  (741) 
12

>  <source_parent_mol>  (741) 
1

>  <source_scenario>  (741) 
1 2 3 1 7 1 0 8 4 8 1 1

>  <source_rank_in_scored_call>  (741) 
3

>  <source_current_task>  (741) 
no_task

>  <scenario>  (741) 
1 2 3 1 7 1 0 8 4 8 1

>  <protected_ring_attachments>  (741) 
3,1,0,2|1,0,2;4,5,0,2|5,0,2;11,10,9,2|10,9,2;12,13,9,2|13,9,2

>  <current_task>  (741) 
no_task

>  <rotatable_bond_torsions>  (741) 
1,0,2,9;0,2,9,10;0,5,6,8

$$$$

     RDKit          3D

 15 16  0  0  0  0  0  0  0  0999 V2000
  -28.5730   -6.6870  -31.1110 C   0  0  0  0  0  0  0  0  0  0  0  0
  -28.0960   -6.7790  -32.3840 N   0  0  0  0  0  0  0  0  0  0  0  0
  -29.0690   -7.9100  -30.3940 N   0  0  0  0  0  0  0  0  0  0  0  0
  -27.6870   -5.5590  -32.7760 C   0  0  0  0  0  0  0  0  0  0  0  0
  -27.9190   -4.7170  -31.7290 N   0  0  0  0  0  0  0  0  0  0  0  0
  -28.4500   -5.4000  -30.7310 N   0  0  0  0  0  0  0  0  0  0  0  0
  -28.7880   -4.8660  -29.5030 C   0  0  0  0  0  0  0  0  0  0  0  0
  -29.3280   -5.4780  -28.5970 O   0  0  0  0  0  0  0  0  0  0  0  0
  -28.3600   -3.4300  -29.1180 C   0  0  0  0  0  0  0  0  0  0  0  0
  -28.2970   -8.4260  -29.5410 C   0  0  1  0  0  0  0  0  0  0  0  0
  -27.0130   -7.8180  -29.0070 C   0  0  0  0  0  0  0  0  0  0  0  0
  -27.0890   -7.9230  -27.6490 O   0  0  0  0  0  0  0  0  0  0  0  0
  -28.0830   -8.7020  -27.2160 C   0  0  0  0  0  0  0  0  0  0  0  0
  -28.6350   -9.3930  -28.4530 C   0  0  0  0  0  0  0  0  0  0  0  0
  -27.3380   -3.3960  -28.0130 C   0  0  0  0  0  0  0  0  0  0  0  0
  1  2  2  0
  1  6  1  0
  1  3  1  0
  2  4  1  0
 10  3  1  1
  4  5  2  0
  5  6  1  0
  6  7  1  0
  7  9  1  0
  7  8  2  0
 10 11  1  0
 10 14  1  0
 11 12  1  0
 12 13  1  0
 13 14  1  0
  9 15  1  0
M  END
>  <name>  (742) 
Car Nac Nd0 Car Nac Nac Cs2 .=O Cs3 C3r C3r O_a C3r C3r Cs3

>  <indices>  (742) 
[0, 1, 2]

>  <tasks>  (742) 
probe_placing close_aromatic_ring close_aromatic_ring close_aromatic_ring ring_built build_to_Nac build_DB_to_Cs2 build_SB_to_Cs2 build_to_Nd0 close_aliphatic_ring close_aliphatic_ring close_aliphatic_ring close_aliphatic_ring

>  <prot_clashes>  (742) 
9

>  <NBS phar>  (742) 
0.2

>  <NBS_non-phar>  (742) 
0.5679100036621094

>  <NBS>  (742) 
0.7679100036621094

>  <source_stage>  (742) 
scored

>  <source_iter>  (742) 
12

>  <source_parent_mol>  (742) 
1

>  <source_scenario>  (742) 
1 2 3 1 7 1 0 8 4 8 1 1

>  <source_rank_in_scored_call>  (742) 
5

>  <source_current_task>  (742) 
no_task

>  <scenario>  (742) 
1 2 3 1 7 1 0 8 4 8 1

>  <protected_ring_attachments>  (742) 
3,1,0,2|1,0,2;4,5,0,2|5,0,2;11,10,9,2|10,9,2;12,13,9,2|13,9,2

>  <current_task>  (742) 
no_task

>  <rotatable_bond_torsions>  (742) 
1,0,2,9;0,2,9,10;0,5,6,8

$$$$

     RDKit          3D

 15 16  0  0  0  0  0  0  0  0999 V2000
  -28.6220   -6.6480  -30.9720 C   0  0  0  0  0  0  0  0  0  0  0  0
  -28.1800   -6.7130  -32.2600 N   0  0  0  0  0  0  0  0  0  0  0  0
  -29.1940   -7.8640  -30.3020 N   0  0  0  0  0  0  0  0  0  0  0  0
  -27.6880   -5.5100  -32.6040 C   0  0  0  0  0  0  0  0  0  0  0  0
  -27.8320   -4.7050  -31.5130 N   0  0  0  0  0  0  0  0  0  0  0  0
  -28.3930   -5.3940  -30.5350 N   0  0  0  0  0  0  0  0  0  0  0  0
  -28.6620   -4.8970  -29.2760 C   0  0  0  0  0  0  0  0  0  0  0  0
  -29.2270   -5.5090  -28.3860 O   0  0  0  0  0  0  0  0  0  0  0  0
  -28.1170   -3.5180  -28.8340 C   0  0  0  0  0  0  0  0  0  0  0  0
  -28.4460   -8.4780  -29.4940 C   0  0  1  0  0  0  0  0  0  0  0  0
  -27.1080   -7.9950  -28.9640 C   0  0  0  0  0  0  0  0  0  0  0  0
  -27.1630   -8.1610  -27.6110 O   0  0  0  0  0  0  0  0  0  0  0  0
  -28.2040   -8.8820  -27.1900 C   0  0  0  0  0  0  0  0  0  0  0  0
  -28.8340   -9.4680  -28.4440 C   0  0  0  0  0  0  0  0  0  0  0  0
  -28.8950   -2.8270  -27.7380 C   0  0  0  0  0  0  0  0  0  0  0  0
  1  2  2  0
  1  6  1  0
  1  3  1  0
  2  4  1  0
 10  3  1  1
  4  5  2  0
  5  6  1  0
  6  7  1  0
  7  9  1  0
  7  8  2  0
 10 11  1  0
 10 14  1  0
 11 12  1  0
 12 13  1  0
 13 14  1  0
  9 15  1  0
M  END
>  <name>  (743) 
Car Nac Nd0 Car Nac Nac Cs2 .=O Cs3 C3r C3r O_a C3r C3r Cs3

>  <indices>  (743) 
[0, 1, 2]

>  <tasks>  (743) 
probe_placing close_aromatic_ring close_aromatic_ring close_aromatic_ring ring_built build_to_Nac build_DB_to_Cs2 build_SB_to_Cs2 build_to_Nd0 close_aliphatic_ring close_aliphatic_ring close_aliphatic_ring close_aliphatic_ring

>  <prot_clashes>  (743) 
7

>  <NBS phar>  (743) 
0.22000000000000003

>  <NBS_non-phar>  (743) 
0.49645646413167316

>  <NBS>  (743) 
0.7164564641316732

>  <source_stage>  (743) 
scored

>  <source_iter>  (743) 
12

>  <source_parent_mol>  (743) 
1

>  <source_scenario>  (743) 
1 2 3 1 7 1 0 8 4 8 1 1

>  <source_rank_in_scored_call>  (743) 
24

>  <source_current_task>  (743) 
no_task

>  <scenario>  (743) 
1 2 3 1 7 1 0 8 4 8 1

>  <protected_ring_attachments>  (743) 
3,1,0,2|1,0,2;4,5,0,2|5,0,2;11,10,9,2|10,9,2;12,13,9,2|13,9,2

>  <current_task>  (743) 
no_task

>  <rotatable_bond_torsions>  (743) 
1,0,2,9;0,2,9,10;0,5,6,8

$$$$

     RDKit          3D

 15 16  0  0  0  0  0  0  0  0999 V2000
  -28.5660   -6.6970  -31.0050 C   0  0  0  0  0  0  0  0  0  0  0  0
  -28.0110   -6.6380  -32.2490 N   0  0  0  0  0  0  0  0  0  0  0  0
  -28.9930   -8.0140  -30.4250 N   0  0  0  0  0  0  0  0  0  0  0  0
  -27.6880   -5.3600  -32.5130 C   0  0  0  0  0  0  0  0  0  0  0  0
  -28.0510   -4.6340  -31.4170 N   0  0  0  0  0  0  0  0  0  0  0  0
  -28.5770   -5.4420  -30.5140 N   0  0  0  0  0  0  0  0  0  0  0  0
  -29.0290   -5.0470  -29.2710 C   0  0  0  0  0  0  0  0  0  0  0  0
  -29.5630   -5.7770  -28.4540 O   0  0  0  0  0  0  0  0  0  0  0  0
  -28.7490   -3.6190  -28.7430 C   0  0  0  0  0  0  0  0  0  0  0  0
  -28.2290   -8.5380  -29.5690 C   0  0  1  0  0  0  0  0  0  0  0  0
  -27.0350   -7.8760  -28.9070 C   0  0  0  0  0  0  0  0  0  0  0  0
  -27.1780   -8.1040  -27.5690 O   0  0  0  0  0  0  0  0  0  0  0  0
  -28.1240   -8.9960  -27.2650 C   0  0  0  0  0  0  0  0  0  0  0  0
  -28.5430   -9.6200  -28.5870 C   0  0  0  0  0  0  0  0  0  0  0  0
  -27.3460   -3.3710  -28.2740 C   0  0  0  0  0  0  0  0  0  0  0  0
  1  2  2  0
  1  6  1  0
  1  3  1  0
  2  4  1  0
 10  3  1  1
  4  5  2  0
  5  6  1  0
  6  7  1  0
  7  9  1  0
  7  8  2  0
 10 11  1  0
 10 14  1  0
 11 12  1  0
 12 13  1  0
 13 14  1  0
  9 15  1  0
M  END
>  <name>  (744) 
Car Nac Nd0 Car Nac Nac Cs2 .=O Cs3 C3r C3r O_a C3r C3r Cs3

>  <indices>  (744) 
[0, 1, 2]

>  <tasks>  (744) 
probe_placing close_aromatic_ring close_aromatic_ring close_aromatic_ring ring_built build_to_Nac build_DB_to_Cs2 build_SB_to_Cs2 build_to_Nd0 close_aliphatic_ring close_aliphatic_ring close_aliphatic_ring close_aliphatic_ring

>  <prot_clashes>  (744) 
6

>  <NBS phar>  (744) 
0.2

>  <NBS_non-phar>  (744) 
0.5068397204081218

>  <NBS>  (744) 
0.7068397204081218

>  <source_stage>  (744) 
scored

>  <source_iter>  (744) 
12

>  <source_parent_mol>  (744) 
1

>  <source_scenario>  (744) 
1 2 3 1 7 1 0 8 4 8 1 1

>  <source_rank_in_scored_call>  (744) 
28

>  <source_current_task>  (744) 
no_task

>  <scenario>  (744) 
1 2 3 1 7 1 0 8 4 8 1

>  <protected_ring_attachments>  (744) 
3,1,0,2|1,0,2;4,5,0,2|5,0,2;11,10,9,2|10,9,2;12,13,9,2|13,9,2

>  <current_task>  (744) 
no_task

>  <rotatable_bond_torsions>  (744) 
1,0,2,9;0,2,9,10;0,5,6,8

$$$$

     RDKit          3D

 15 16  0  0  0  0  0  0  0  0999 V2000
  -28.6020   -6.7010  -31.0130 C   0  0  0  0  0  0  0  0  0  0  0  0
  -28.1620   -6.7180  -32.3040 N   0  0  0  0  0  0  0  0  0  0  0  0
  -29.1560   -7.9450  -30.3820 N   0  0  0  0  0  0  0  0  0  0  0  0
  -27.6870   -5.4970  -32.6090 C   0  0  0  0  0  0  0  0  0  0  0  0
  -27.8390   -4.7310  -31.4920 N   0  0  0  0  0  0  0  0  0  0  0  0
  -28.3880   -5.4580  -30.5360 N   0  0  0  0  0  0  0  0  0  0  0  0
  -28.6620   -5.0060  -29.2610 C   0  0  0  0  0  0  0  0  0  0  0  0
  -29.2170   -5.6550  -28.3910 O   0  0  0  0  0  0  0  0  0  0  0  0
  -28.1340   -3.6350  -28.7750 C   0  0  0  0  0  0  0  0  0  0  0  0
  -28.3980   -8.5750  -29.5960 C   0  0  1  0  0  0  0  0  0  0  0  0
  -27.0660   -8.0920  -29.0530 C   0  0  0  0  0  0  0  0  0  0  0  0
  -27.1150   -8.3020  -27.7060 O   0  0  0  0  0  0  0  0  0  0  0  0
  -28.1460   -9.0500  -27.3070 C   0  0  0  0  0  0  0  0  0  0  0  0
  -28.7710   -9.6040  -28.5780 C   0  0  0  0  0  0  0  0  0  0  0  0
  -29.1640   -2.9000  -27.9780 C   0  0  0  0  0  0  0  0  0  0  0  0
  1  2  2  0
  1  6  1  0
  1  3  1  0
  2  4  1  0
 10  3  1  1
  4  5  2  0
  5  6  1  0
  6  7  1  0
  7  9  1  0
  7  8  2  0
 10 11  1  0
 10 14  1  0
 11 12  1  0
 12 13  1  0
 13 14  1  0
  9 15  1  0
M  END
>  <name>  (745) 
Car Nac Nd0 Car Nac Nac Cs2 .=O Cs3 C3r C3r O_a C3r C3r Cs3

>  <indices>  (745) 
[0, 1, 2]

>  <tasks>  (745) 
probe_placing close_aromatic_ring close_aromatic_ring close_aromatic_ring ring_built build_to_Nac build_DB_to_Cs2 build_SB_to_Cs2 build_to_Nd0 close_aliphatic_ring close_aliphatic_ring close_aliphatic_ring close_aliphatic_ring

>  <prot_clashes>  (745) 
8

>  <NBS phar>  (745) 
0.22000000000000003

>  <NBS_non-phar>  (745) 
0.48318468729654945

>  <NBS>  (745) 
0.7031846872965495

>  <source_stage>  (745) 
scored

>  <source_iter>  (745) 
12

>  <source_parent_mol>  (745) 
1

>  <source_scenario>  (745) 
1 2 3 1 7 1 0 8 4 8 1 1

>  <source_rank_in_scored_call>  (745) 
33

>  <source_current_task>  (745) 
no_task

>  <scenario>  (745) 
1 2 3 1 7 1 0 8 4 8 1

>  <protected_ring_attachments>  (745) 
3,1,0,2|1,0,2;4,5,0,2|5,0,2;11,10,9,2|10,9,2;12,13,9,2|13,9,2

>  <current_task>  (745) 
no_task

>  <rotatable_bond_torsions>  (745) 
1,0,2,9;0,2,9,10;0,5,6,8

$$$$

     RDKit          3D

 15 16  0  0  0  0  0  0  0  0999 V2000
  -28.5850   -6.7360  -31.0430 C   0  0  0  0  0  0  0  0  0  0  0  0
  -28.1540   -6.7140  -32.3370 N   0  0  0  0  0  0  0  0  0  0  0  0
  -29.1260   -8.0010  -30.4430 N   0  0  0  0  0  0  0  0  0  0  0  0
  -27.6890   -5.4830  -32.6120 C   0  0  0  0  0  0  0  0  0  0  0  0
  -27.8390   -4.7480  -31.4730 N   0  0  0  0  0  0  0  0  0  0  0  0
  -28.3760   -5.5060  -30.5340 N   0  0  0  0  0  0  0  0  0  0  0  0
  -28.6430   -5.0910  -29.2450 C   0  0  0  0  0  0  0  0  0  0  0  0
  -29.1880   -5.7670  -28.3890 O   0  0  0  0  0  0  0  0  0  0  0  0
  -28.1210   -3.7300  -28.7250 C   0  0  0  0  0  0  0  0  0  0  0  0
  -28.3590   -8.6470  -29.6800 C   0  0  1  0  0  0  0  0  0  0  0  0
  -27.0260   -8.1700  -29.1330 C   0  0  0  0  0  0  0  0  0  0  0  0
  -27.0640   -8.4170  -27.7920 O   0  0  0  0  0  0  0  0  0  0  0  0
  -28.0870   -9.1830  -27.4060 C   0  0  0  0  0  0  0  0  0  0  0  0
  -28.7170   -9.7070  -28.6880 C   0  0  0  0  0  0  0  0  0  0  0  0
  -29.1820   -2.8880  -28.0650 C   0  0  0  0  0  0  0  0  0  0  0  0
  1  2  2  0
  1  6  1  0
  1  3  1  0
  2  4  1  0
 10  3  1  1
  4  5  2  0
  5  6  1  0
  6  7  1  0
  7  9  1  0
  7  8  2  0
 10 11  1  0
 10 14  1  0
 11 12  1  0
 12 13  1  0
 13 14  1  0
  9 15  1  0
M  END
>  <name>  (746) 
Car Nac Nd0 Car Nac Nac Cs2 .=O Cs3 C3r C3r O_a C3r C3r Cs3

>  <indices>  (746) 
[0, 1, 2]

>  <tasks>  (746) 
probe_placing close_aromatic_ring close_aromatic_ring close_aromatic_ring ring_built build_to_Nac build_DB_to_Cs2 build_SB_to_Cs2 build_to_Nd0 close_aliphatic_ring close_aliphatic_ring close_aliphatic_ring close_aliphatic_ring

>  <prot_clashes>  (746) 
6

>  <NBS phar>  (746) 
0.22000000000000003

>  <NBS_non-phar>  (746) 
0.48207887013753253

>  <NBS>  (746) 
0.7020788701375326

>  <source_stage>  (746) 
scored

>  <source_iter>  (746) 
12

>  <source_parent_mol>  (746) 
1

>  <source_scenario>  (746) 
1 2 3 1 7 1 0 8 4 8 1 1

>  <source_rank_in_scored_call>  (746) 
35

>  <source_current_task>  (746) 
no_task

>  <scenario>  (746) 
1 2 3 1 7 1 0 8 4 8 1

>  <protected_ring_attachments>  (746) 
3,1,0,2|1,0,2;4,5,0,2|5,0,2;11,10,9,2|10,9,2;12,13,9,2|13,9,2

>  <current_task>  (746) 
no_task

>  <rotatable_bond_torsions>  (746) 
1,0,2,9;0,2,9,10;0,5,6,8

$$$$

     RDKit          3D

 15 16  0  0  0  0  0  0  0  0999 V2000
  -28.5610   -6.7330  -31.0170 C   0  0  0  0  0  0  0  0  0  0  0  0
  -28.0460   -6.6550  -32.2770 N   0  0  0  0  0  0  0  0  0  0  0  0
  -29.0170   -8.0510  -30.4620 N   0  0  0  0  0  0  0  0  0  0  0  0
  -27.6850   -5.3810  -32.5130 C   0  0  0  0  0  0  0  0  0  0  0  0
  -27.9820   -4.6780  -31.3840 N   0  0  0  0  0  0  0  0  0  0  0  0
  -28.5070   -5.4940  -30.4870 N   0  0  0  0  0  0  0  0  0  0  0  0
  -28.9000   -5.1220  -29.2180 C   0  0  0  0  0  0  0  0  0  0  0  0
  -29.4340   -5.8570  -28.4050 O   0  0  0  0  0  0  0  0  0  0  0  0
  -28.5490   -3.7230  -28.6560 C   0  0  0  0  0  0  0  0  0  0  0  0
  -28.2450   -8.6290  -29.6500 C   0  0  1  0  0  0  0  0  0  0  0  0
  -27.0040   -8.0330  -29.0100 C   0  0  0  0  0  0  0  0  0  0  0  0
  -27.1100   -8.2990  -27.6760 O   0  0  0  0  0  0  0  0  0  0  0  0
  -28.0790   -9.1640  -27.3660 C   0  0  0  0  0  0  0  0  0  0  0  0
  -28.5660   -9.7300  -28.6910 C   0  0  0  0  0  0  0  0  0  0  0  0
  -28.7340   -2.5680  -29.6410 C   0  0  0  0  0  0  0  0  0  0  0  0
  1  2  2  0
  1  6  1  0
  1  3  1  0
  2  4  1  0
 10  3  1  1
  4  5  2  0
  5  6  1  0
  6  7  1  0
  7  9  1  0
  7  8  2  0
 10 11  1  0
 10 14  1  0
 11 12  1  0
 12 13  1  0
 13 14  1  0
  9 15  1  0
M  END
>  <name>  (747) 
Car Nac Nd0 Car Nac Nac Cs2 .=O Cs3 C3r C3r O_a C3r C3r Cs3

>  <indices>  (747) 
[0, 1, 2]

>  <tasks>  (747) 
probe_placing close_aromatic_ring close_aromatic_ring close_aromatic_ring ring_built build_to_Nac build_DB_to_Cs2 build_SB_to_Cs2 build_to_Nd0 close_aliphatic_ring close_aliphatic_ring close_aliphatic_ring close_aliphatic_ring

>  <prot_clashes>  (747) 
2

>  <NBS phar>  (747) 
0.2

>  <NBS_non-phar>  (747) 
0.49379603068033856

>  <NBS>  (747) 
0.6937960306803386

>  <source_stage>  (747) 
scored

>  <source_iter>  (747) 
12

>  <source_parent_mol>  (747) 
1

>  <source_scenario>  (747) 
1 2 3 1 7 1 0 8 4 8 1 1

>  <source_rank_in_scored_call>  (747) 
47

>  <source_current_task>  (747) 
no_task

>  <scenario>  (747) 
1 2 3 1 7 1 0 8 4 8 1

>  <protected_ring_attachments>  (747) 
3,1,0,2|1,0,2;4,5,0,2|5,0,2;11,10,9,2|10,9,2;12,13,9,2|13,9,2

>  <current_task>  (747) 
no_task

>  <rotatable_bond_torsions>  (747) 
1,0,2,9;0,2,9,10;0,5,6,8

$$$$

     RDKit          3D

 15 16  0  0  0  0  0  0  0  0999 V2000
  -28.6260   -6.7360  -31.1680 C   0  0  0  0  0  0  0  0  0  0  0  0
  -28.1380   -6.9200  -32.4280 N   0  0  0  0  0  0  0  0  0  0  0  0
  -29.1670   -7.8970  -30.3850 N   0  0  0  0  0  0  0  0  0  0  0  0
  -27.6880   -5.7400  -32.8880 C   0  0  0  0  0  0  0  0  0  0  0  0
  -27.9050   -4.8290  -31.8980 N   0  0  0  0  0  0  0  0  0  0  0  0
  -28.4680   -5.4320  -30.8660 N   0  0  0  0  0  0  0  0  0  0  0  0
  -28.8020   -4.8140  -29.6780 C   0  0  0  0  0  0  0  0  0  0  0  0
  -29.3700   -5.3520  -28.7430 O   0  0  0  0  0  0  0  0  0  0  0  0
  -28.3340   -3.3710  -29.3760 C   0  0  0  0  0  0  0  0  0  0  0  0
  -28.4210   -8.3830  -29.4920 C   0  0  1  0  0  0  0  0  0  0  0  0
  -27.1250   -7.7820  -28.9800 C   0  0  0  0  0  0  0  0  0  0  0  0
  -27.2180   -7.8020  -27.6190 O   0  0  0  0  0  0  0  0  0  0  0  0
  -28.2410   -8.5210  -27.1510 C   0  0  0  0  0  0  0  0  0  0  0  0
  -28.8000   -9.2710  -28.3510 C   0  0  0  0  0  0  0  0  0  0  0  0
  -27.9830   -3.2310  -27.9630 C   0  0  0  0  0  0  0  0  0  0  0  0
  1  2  2  0
  1  6  1  0
  1  3  1  0
  2  4  1  0
 10  3  1  1
  4  5  2  0
  5  6  1  0
  6  7  1  0
  7  9  1  0
  7  8  2  0
 10 11  1  0
 10 14  1  0
 11 12  1  0
 12 13  1  0
 13 14  1  0
  9 15  1  0
M  END
>  <name>  (748) 
Car Nac Nd0 Car Nac Nac Cs2 .=O Cs3 C3r C3r O_a C3r C3r Cs3

>  <indices>  (748) 
[0, 1, 2]

>  <tasks>  (748) 
probe_placing close_aromatic_ring close_aromatic_ring close_aromatic_ring ring_built build_to_Nac build_DB_to_Cs2 build_SB_to_Cs2 build_to_Nd0 close_aliphatic_ring close_aliphatic_ring close_aliphatic_ring close_aliphatic_ring

>  <prot_clashes>  (748) 
9

>  <NBS phar>  (748) 
0.2

>  <NBS_non-phar>  (748) 
0.49026501973470055

>  <NBS>  (748) 
0.6902650197347006

>  <source_stage>  (748) 
scored

>  <source_iter>  (748) 
12

>  <source_parent_mol>  (748) 
1

>  <source_scenario>  (748) 
1 2 3 1 7 1 0 8 4 8 1 1

>  <source_rank_in_scored_call>  (748) 
51

>  <source_current_task>  (748) 
no_task

>  <scenario>  (748) 
1 2 3 1 7 1 0 8 4 8 1

>  <protected_ring_attachments>  (748) 
3,1,0,2|1,0,2;4,5,0,2|5,0,2;11,10,9,2|10,9,2;12,13,9,2|13,9,2

>  <current_task>  (748) 
no_task

>  <rotatable_bond_torsions>  (748) 
1,0,2,9;0,2,9,10;0,5,6,8

$$$$

     RDKit          3D

 15 16  0  0  0  0  0  0  0  0999 V2000
  -28.5810   -6.7440  -31.0820 C   0  0  0  0  0  0  0  0  0  0  0  0
  -28.1490   -6.6660  -32.3730 N   0  0  0  0  0  0  0  0  0  0  0  0
  -29.1190   -8.0350  -30.5360 N   0  0  0  0  0  0  0  0  0  0  0  0
  -27.6880   -5.4220  -32.5940 C   0  0  0  0  0  0  0  0  0  0  0  0
  -27.8410   -4.7380  -31.4260 N   0  0  0  0  0  0  0  0  0  0  0  0
  -28.3760   -5.5360  -30.5200 N   0  0  0  0  0  0  0  0  0  0  0  0
  -28.6460   -5.1770  -29.2140 C   0  0  0  0  0  0  0  0  0  0  0  0
  -29.1880   -5.8920  -28.3880 O   0  0  0  0  0  0  0  0  0  0  0  0
  -28.1280   -3.8380  -28.6360 C   0  0  0  0  0  0  0  0  0  0  0  0
  -28.3490   -8.7110  -29.8010 C   0  0  1  0  0  0  0  0  0  0  0  0
  -27.0180   -8.2530  -29.2340 C   0  0  0  0  0  0  0  0  0  0  0  0
  -27.0560   -8.5580  -27.9040 O   0  0  0  0  0  0  0  0  0  0  0  0
  -28.0770   -9.3430  -27.5520 C   0  0  0  0  0  0  0  0  0  0  0  0
  -28.7050   -9.8130  -28.8560 C   0  0  0  0  0  0  0  0  0  0  0  0
  -29.1860   -2.8040  -28.3870 C   0  0  0  0  0  0  0  0  0  0  0  0
  1  2  2  0
  1  3  1  0
  1  6  1  0
  2  4  1  0
 10  3  1  1
  4  5  2  0
  5  6  1  0
  6  7  1  0
  7  9  1  0
  7  8  2  0
 10 11  1  0
 10 14  1  0
 11 12  1  0
 12 13  1  0
 13 14  1  0
  9 15  1  0
M  END
>  <name>  (749) 
Car Nac Nd0 Car Nac Nac Cs2 .=O Cs3 C3r C3r O_a C3r C3r Cs3

>  <indices>  (749) 
[0, 1, 2]

>  <tasks>  (749) 
probe_placing close_aromatic_ring close_aromatic_ring close_aromatic_ring ring_built build_to_Nac build_DB_to_Cs2 build_SB_to_Cs2 build_to_Nd0 close_aliphatic_ring close_aliphatic_ring close_aliphatic_ring close_aliphatic_ring

>  <prot_clashes>  (749) 
5

>  <NBS phar>  (749) 
0.2

>  <NBS_non-phar>  (749) 
0.438199520111084

>  <NBS>  (749) 
0.6381995201110839

>  <source_stage>  (749) 
scored

>  <source_iter>  (749) 
12

>  <source_parent_mol>  (749) 
1

>  <source_scenario>  (749) 
1 2 3 1 7 1 0 8 4 8 1 1

>  <source_rank_in_scored_call>  (749) 
88

>  <source_current_task>  (749) 
no_task

>  <scenario>  (749) 
1 2 3 1 7 1 0 8 4 8 1

>  <protected_ring_attachments>  (749) 
3,1,0,2|1,0,2;4,5,0,2|5,0,2;11,10,9,2|10,9,2;12,13,9,2|13,9,2

>  <current_task>  (749) 
no_task

>  <rotatable_bond_torsions>  (749) 
1,0,2,9;0,2,9,10;0,5,6,8

$$$$

     RDKit          3D

 15 16  0  0  0  0  0  0  0  0999 V2000
  -28.4720   -6.1870  -30.6420 C   0  0  0  0  0  0  0  0  0  0  0  0
  -27.7280   -5.9480  -31.7600 N   0  0  0  0  0  0  0  0  0  0  0  0
  -28.9620   -7.5720  -30.3360 N   0  0  0  0  0  0  0  0  0  0  0  0
  -27.3900   -4.6470  -31.7780 C   0  0  0  0  0  0  0  0  0  0  0  0
  -27.9330   -4.0890  -30.6590 N   0  0  0  0  0  0  0  0  0  0  0  0
  -28.5810   -5.0180  -29.9790 N   0  0  0  0  0  0  0  0  0  0  0  0
  -29.2290   -4.8070  -28.7790 C   0  0  0  0  0  0  0  0  0  0  0  0
  -29.8730   -5.6470  -28.1730 O   0  0  0  0  0  0  0  0  0  0  0  0
  -29.0600   -3.4760  -28.0090 C   0  0  0  0  0  0  0  0  0  0  0  0
  -28.3340   -8.2210  -29.4570 C   0  0  1  0  0  0  0  0  0  0  0  0
  -27.2700   -7.6730  -28.5240 C   0  0  0  0  0  0  0  0  0  0  0  0
  -27.6180   -8.0960  -27.2740 O   0  0  0  0  0  0  0  0  0  0  0  0
  -28.5850   -9.0160  -27.2580 C   0  0  0  0  0  0  0  0  0  0  0  0
  -28.7800   -9.4350  -28.7070 C   0  0  0  0  0  0  0  0  0  0  0  0
  -26.5700   -3.9420  -32.8310 C   0  0  0  0  0  0  0  0  0  0  0  0
  1  2  2  0
  1  3  1  0
  1  6  1  0
  2  4  1  0
 10  3  1  1
  4 15  1  0
  4  5  2  0
  5  6  1  0
  6  7  1  0
  7  8  2  0
  7  9  1  0
 10 14  1  0
 10 11  1  0
 11 12  1  0
 12 13  1  0
 13 14  1  0
M  END
>  <name>  (750) 
Car Nac Nd0 Car Nac Nac Cs2 .=O Cs3 C3r C3r O_a C3r C3r Cs3

>  <indices>  (750) 
[0, 1, 2]

>  <tasks>  (750) 
probe_placing close_aromatic_ring close_aromatic_ring close_aromatic_ring ring_built build_to_Nac build_DB_to_Cs2 build_SB_to_Cs2 build_to_Nd0 close_aliphatic_ring close_aliphatic_ring close_aliphatic_ring close_aliphatic_ring

>  <prot_clashes>  (750) 
8

>  <NBS phar>  (750) 
0.04

>  <NBS_non-phar>  (750) 
0.5925921122233073

>  <NBS>  (750) 
0.6325921122233074

>  <source_stage>  (750) 
scored

>  <source_iter>  (750) 
12

>  <source_parent_mol>  (750) 
1

>  <source_scenario>  (750) 
1 2 3 1 7 1 0 8 4 8 1 1

>  <source_rank_in_scored_call>  (750) 
92

>  <source_current_task>  (750) 
no_task

>  <scenario>  (750) 
1 2 3 1 7 1 0 8 4 8 1

>  <protected_ring_attachments>  (750) 
3,1,0,2|1,0,2;4,5,0,2|5,0,2;11,10,9,2|10,9,2;12,13,9,2|13,9,2

>  <current_task>  (750) 
no_task

>  <rotatable_bond_torsions>  (750) 
1,0,2,9;0,2,9,10;0,5,6,8

$$$$

     RDKit          3D

 15 16  0  0  0  0  0  0  0  0999 V2000
  -28.5450   -6.7530  -31.0750 C   0  0  0  0  0  0  0  0  0  0  0  0
  -28.1130   -6.6730  -32.3660 N   0  0  0  0  0  0  0  0  0  0  0  0
  -29.0410   -8.0570  -30.5200 N   0  0  0  0  0  0  0  0  0  0  0  0
  -27.6920   -5.4170  -32.5980 C   0  0  0  0  0  0  0  0  0  0  0  0
  -27.8700   -4.7270  -31.4360 N   0  0  0  0  0  0  0  0  0  0  0  0
  -28.3810   -5.5350  -30.5240 N   0  0  0  0  0  0  0  0  0  0  0  0
  -28.6650   -5.1730  -29.2220 C   0  0  0  0  0  0  0  0  0  0  0  0
  -29.1860   -5.8970  -28.3910 O   0  0  0  0  0  0  0  0  0  0  0  0
  -28.1930   -3.8130  -28.6550 C   0  0  0  0  0  0  0  0  0  0  0  0
  -28.2520   -8.7000  -29.7760 C   0  0  1  0  0  0  0  0  0  0  0  0
  -26.9380   -8.1940  -29.2100 C   0  0  0  0  0  0  0  0  0  0  0  0
  -26.9690   -8.4880  -27.8780 O   0  0  0  0  0  0  0  0  0  0  0  0
  -27.9650   -9.3040  -27.5220 C   0  0  0  0  0  0  0  0  0  0  0  0
  -28.5730   -9.8050  -28.8220 C   0  0  0  0  0  0  0  0  0  0  0  0
  -28.8830   -2.6620  -29.4120 C   0  0  0  0  0  0  0  0  0  0  0  0
  1  2  2  0
  1  6  1  0
  1  3  1  0
  2  4  1  0
 10  3  1  1
  4  5  2  0
  5  6  1  0
  6  7  1  0
  7  9  1  0
  7  8  2  0
 10 11  1  0
 10 14  1  0
 11 12  1  0
 12 13  1  0
 13 14  1  0
  9 15  1  0
M  END
>  <name>  (751) 
Car Nac Nd0 Car Nac Nac Cs2 .=O Cs3 C3r C3r O_a C3r C3r Cs3

>  <indices>  (751) 
[0, 1, 2]

>  <tasks>  (751) 
probe_placing close_aromatic_ring close_aromatic_ring close_aromatic_ring ring_built build_to_Nac build_DB_to_Cs2 build_SB_to_Cs2 build_to_Nd0 close_aliphatic_ring close_aliphatic_ring close_aliphatic_ring close_aliphatic_ring

>  <prot_clashes>  (751) 
5

>  <NBS phar>  (751) 
0.2

>  <NBS_non-phar>  (751) 
0.42273441950480145

>  <NBS>  (751) 
0.6227344195048015

>  <source_stage>  (751) 
scored

>  <source_iter>  (751) 
12

>  <source_parent_mol>  (751) 
1

>  <source_scenario>  (751) 
1 2 3 1 7 1 0 8 4 8 1 1

>  <source_rank_in_scored_call>  (751) 
104

>  <source_current_task>  (751) 
no_task

>  <scenario>  (751) 
1 2 3 1 7 1 0 8 4 8 1

>  <protected_ring_attachments>  (751) 
3,1,0,2|1,0,2;4,5,0,2|5,0,2;11,10,9,2|10,9,2;12,13,9,2|13,9,2

>  <current_task>  (751) 
no_task

>  <rotatable_bond_torsions>  (751) 
1,0,2,9;0,2,9,10;0,5,6,8

$$$$

     RDKit          3D

 15 16  0  0  0  0  0  0  0  0999 V2000
  -28.6160   -6.7040  -30.9390 C   0  0  0  0  0  0  0  0  0  0  0  0
  -28.0740   -6.7240  -32.1900 N   0  0  0  0  0  0  0  0  0  0  0  0
  -29.0940   -7.9740  -30.2970 N   0  0  0  0  0  0  0  0  0  0  0  0
  -27.6990   -5.4740  -32.5130 C   0  0  0  0  0  0  0  0  0  0  0  0
  -28.0160   -4.6860  -31.4470 N   0  0  0  0  0  0  0  0  0  0  0  0
  -28.5660   -5.4300  -30.5040 N   0  0  0  0  0  0  0  0  0  0  0  0
  -28.9850   -4.9610  -29.2750 C   0  0  0  0  0  0  0  0  0  0  0  0
  -29.5410   -5.6300  -28.4210 O   0  0  0  0  0  0  0  0  0  0  0  0
  -28.6360   -3.5260  -28.8120 C   0  0  0  0  0  0  0  0  0  0  0  0
  -28.3430   -8.4940  -29.4270 C   0  0  1  0  0  0  0  0  0  0  0  0
  -27.1130   -7.8570  -28.8070 C   0  0  0  0  0  0  0  0  0  0  0  0
  -27.2500   -8.0210  -27.4590 O   0  0  0  0  0  0  0  0  0  0  0  0
  -28.2310   -8.8560  -27.1060 C   0  0  0  0  0  0  0  0  0  0  0  0
  -28.6930   -9.5170  -28.3960 C   0  0  0  0  0  0  0  0  0  0  0  0
  -27.3410   -3.4900  -28.0130 C   0  0  0  0  0  0  0  0  0  0  0  0
  1  2  2  0
  1  6  1  0
  1  3  1  0
  2  4  1  0
 10  3  1  1
  4  5  2  0
  5  6  1  0
  6  7  1  0
  7  9  1  0
  7  8  2  0
 10 11  1  0
 10 14  1  0
 11 12  1  0
 12 13  1  0
 13 14  1  0
  9 15  1  0
M  END
>  <name>  (752) 
Car Nac Nd0 Car Nac Nac Cs2 .=O Cs3 C3r C3r O_a C3r C3r Cs3

>  <indices>  (752) 
[0, 1, 2]

>  <tasks>  (752) 
probe_placing close_aromatic_ring close_aromatic_ring close_aromatic_ring ring_built build_to_Nac build_DB_to_Cs2 build_SB_to_Cs2 build_to_Nd0 close_aliphatic_ring close_aliphatic_ring close_aliphatic_ring close_aliphatic_ring

>  <prot_clashes>  (752) 
4

>  <NBS phar>  (752) 
0.1

>  <NBS_non-phar>  (752) 
0.5094017346700033

>  <NBS>  (752) 
0.6094017346700032

>  <source_stage>  (752) 
scored

>  <source_iter>  (752) 
12

>  <source_parent_mol>  (752) 
1

>  <source_scenario>  (752) 
1 2 3 1 7 1 0 8 4 8 1 1

>  <source_rank_in_scored_call>  (752) 
112

>  <source_current_task>  (752) 
no_task

>  <scenario>  (752) 
1 2 3 1 7 1 0 8 4 8 1

>  <protected_ring_attachments>  (752) 
3,1,0,2|1,0,2;4,5,0,2|5,0,2;11,10,9,2|10,9,2;12,13,9,2|13,9,2

>  <current_task>  (752) 
no_task

>  <rotatable_bond_torsions>  (752) 
1,0,2,9;0,2,9,10;0,5,6,8

$$$$

     RDKit          3D

 15 16  0  0  0  0  0  0  0  0999 V2000
  -28.5430   -6.7690  -31.0950 C   0  0  0  0  0  0  0  0  0  0  0  0
  -28.1090   -6.6420  -32.3810 N   0  0  0  0  0  0  0  0  0  0  0  0
  -29.0390   -8.0910  -30.5860 N   0  0  0  0  0  0  0  0  0  0  0  0
  -27.6890   -5.3780  -32.5680 C   0  0  0  0  0  0  0  0  0  0  0  0
  -27.8700   -4.7300  -31.3820 N   0  0  0  0  0  0  0  0  0  0  0  0
  -28.3810   -5.5700  -30.5000 N   0  0  0  0  0  0  0  0  0  0  0  0
  -28.6670   -5.2550  -29.1870 C   0  0  0  0  0  0  0  0  0  0  0  0
  -29.1890   -6.0080  -28.3830 O   0  0  0  0  0  0  0  0  0  0  0  0
  -28.1980   -3.9150  -28.5720 C   0  0  0  0  0  0  0  0  0  0  0  0
  -28.2500   -8.7590  -29.8650 C   0  0  1  0  0  0  0  0  0  0  0  0
  -26.9370   -8.2730  -29.2790 C   0  0  0  0  0  0  0  0  0  0  0  0
  -26.9700   -8.6130  -27.9580 O   0  0  0  0  0  0  0  0  0  0  0  0
  -27.9650   -9.4420  -27.6320 C   0  0  0  0  0  0  0  0  0  0  0  0
  -28.5710   -9.8980  -28.9500 C   0  0  0  0  0  0  0  0  0  0  0  0
  -28.9380   -2.6880  -29.1890 C   0  0  0  0  0  0  0  0  0  0  0  0
  1  2  2  0
  1  3  1  0
  1  6  1  0
  2  4  1  0
 10  3  1  1
  4  5  2  0
  5  6  1  0
  6  7  1  0
  7  9  1  0
  7  8  2  0
 10 11  1  0
 10 14  1  0
 11 12  1  0
 12 13  1  0
 13 14  1  0
  9 15  1  0
M  END
>  <name>  (753) 
Car Nac Nd0 Car Nac Nac Cs2 .=O Cs3 C3r C3r O_a C3r C3r Cs3

>  <indices>  (753) 
[0, 1, 2]

>  <tasks>  (753) 
probe_placing close_aromatic_ring close_aromatic_ring close_aromatic_ring ring_built build_to_Nac build_DB_to_Cs2 build_SB_to_Cs2 build_to_Nd0 close_aliphatic_ring close_aliphatic_ring close_aliphatic_ring close_aliphatic_ring

>  <prot_clashes>  (753) 
5

>  <NBS phar>  (753) 
0.2

>  <NBS_non-phar>  (753) 
0.3963940938313802

>  <NBS>  (753) 
0.5963940938313802

>  <source_stage>  (753) 
scored

>  <source_iter>  (753) 
12

>  <source_parent_mol>  (753) 
1

>  <source_scenario>  (753) 
1 2 3 1 7 1 0 8 4 8 1 1

>  <source_rank_in_scored_call>  (753) 
119

>  <source_current_task>  (753) 
no_task

>  <scenario>  (753) 
1 2 3 1 7 1 0 8 4 8 1

>  <protected_ring_attachments>  (753) 
3,1,0,2|1,0,2;4,5,0,2|5,0,2;11,10,9,2|10,9,2;12,13,9,2|13,9,2

>  <current_task>  (753) 
no_task

>  <rotatable_bond_torsions>  (753) 
1,0,2,9;0,2,9,10;0,5,6,8

$$$$

     RDKit          3D

 15 16  0  0  0  0  0  0  0  0999 V2000
  -28.5390   -6.7710  -31.0990 C   0  0  0  0  0  0  0  0  0  0  0  0
  -28.1040   -6.6410  -32.3850 N   0  0  0  0  0  0  0  0  0  0  0  0
  -29.0320   -8.0950  -30.5930 N   0  0  0  0  0  0  0  0  0  0  0  0
  -27.6870   -5.3760  -32.5700 C   0  0  0  0  0  0  0  0  0  0  0  0
  -27.8710   -4.7300  -31.3830 N   0  0  0  0  0  0  0  0  0  0  0  0
  -28.3810   -5.5720  -30.5030 N   0  0  0  0  0  0  0  0  0  0  0  0
  -28.6700   -5.2600  -29.1900 C   0  0  0  0  0  0  0  0  0  0  0  0
  -29.1910   -6.0160  -28.3870 O   0  0  0  0  0  0  0  0  0  0  0  0
  -28.2050   -3.9200  -28.5720 C   0  0  0  0  0  0  0  0  0  0  0  0
  -28.2430   -8.7620  -29.8720 C   0  0  1  0  0  0  0  0  0  0  0  0
  -26.9320   -8.2730  -29.2840 C   0  0  0  0  0  0  0  0  0  0  0  0
  -26.9660   -8.6160  -27.9630 O   0  0  0  0  0  0  0  0  0  0  0  0
  -27.9600   -9.4470  -27.6400 C   0  0  0  0  0  0  0  0  0  0  0  0
  -28.5630   -9.9030  -28.9600 C   0  0  0  0  0  0  0  0  0  0  0  0
  -28.9470   -2.7730  -29.2500 C   0  0  0  0  0  0  0  0  0  0  0  0
  1  2  2  0
  1  3  1  0
  1  6  1  0
  2  4  1  0
 10  3  1  1
  4  5  2  0
  5  6  1  0
  6  7  1  0
  7  9  1  0
  7  8  2  0
 10 11  1  0
 10 14  1  0
 11 12  1  0
 12 13  1  0
 13 14  1  0
  9 15  1  0
M  END
>  <name>  (754) 
Car Nac Nd0 Car Nac Nac Cs2 .=O Cs3 C3r C3r O_a C3r C3r Cs3

>  <indices>  (754) 
[0, 1, 2]

>  <tasks>  (754) 
probe_placing close_aromatic_ring close_aromatic_ring close_aromatic_ring ring_built build_to_Nac build_DB_to_Cs2 build_SB_to_Cs2 build_to_Nd0 close_aliphatic_ring close_aliphatic_ring close_aliphatic_ring close_aliphatic_ring

>  <prot_clashes>  (754) 
5

>  <NBS phar>  (754) 
0.2

>  <NBS_non-phar>  (754) 
0.3927825609842936

>  <NBS>  (754) 
0.5927825609842936

>  <source_stage>  (754) 
scored

>  <source_iter>  (754) 
12

>  <source_parent_mol>  (754) 
1

>  <source_scenario>  (754) 
1 2 3 1 7 1 0 8 4 8 1 1

>  <source_rank_in_scored_call>  (754) 
120

>  <source_current_task>  (754) 
no_task

>  <scenario>  (754) 
1 2 3 1 7 1 0 8 4 8 1

>  <protected_ring_attachments>  (754) 
3,1,0,2|1,0,2;4,5,0,2|5,0,2;11,10,9,2|10,9,2;12,13,9,2|13,9,2

>  <current_task>  (754) 
no_task

>  <rotatable_bond_torsions>  (754) 
1,0,2,9;0,2,9,10;0,5,6,8

$$$$

     RDKit          3D

 14 15  0  0  0  0  0  0  0  0999 V2000
  -28.5760   -6.5490  -30.8990 C   0  0  0  0  0  0  0  0  0  0  0  0
  -28.0190   -6.5640  -32.1460 N   0  0  0  0  0  0  0  0  0  0  0  0
  -29.0130   -7.8290  -30.2490 N   0  0  0  0  0  0  0  0  0  0  0  0
  -27.6850   -5.3030  -32.4790 C   0  0  0  0  0  0  0  0  0  0  0  0
  -28.0420   -4.5170  -31.4250 N   0  0  0  0  0  0  0  0  0  0  0  0
  -28.5750   -5.2690  -30.4780 N   0  0  0  0  0  0  0  0  0  0  0  0
  -29.0220   -4.8010  -29.2590 C   0  0  0  0  0  0  0  0  0  0  0  0
  -29.5630   -5.4830  -28.4040 O   0  0  0  0  0  0  0  0  0  0  0  0
  -28.7300   -3.3520  -28.8090 C   0  0  0  0  0  0  0  0  0  0  0  0
  -27.7700   -8.6490  -29.5330 C   0  0  2  0  0  0  0  0  0  0  0  0
  -28.5630   -9.9210  -29.4960 C   0  0  0  0  0  0  0  0  0  0  0  0
  -28.1340  -10.6780  -28.4530 O   0  0  0  0  0  0  0  0  0  0  0  0
  -27.3130   -9.9430  -27.6290 C   0  0  0  0  0  0  0  0  0  0  0  0
  -27.4290   -8.4950  -28.0800 C   0  0  0  0  0  0  0  0  0  0  0  0
  1  2  2  0
  1  6  1  0
  1  3  1  0
  2  4  1  0
 10  3  1  1
  4  5  2  0
  5  6  1  0
  6  7  1  0
  7  9  1  0
  7  8  2  0
 10 11  1  0
 10 14  1  0
 11 12  1  0
 12 13  1  0
 13 14  1  0
M  END
>  <name>  (755) 
Car Nac Nd0 Car Nac Nac Cs2 .=O Cs3 C3r C3r O_a C3r C3r

>  <indices>  (755) 
[0, 1, 2]

>  <tasks>  (755) 
probe_placing close_aromatic_ring close_aromatic_ring close_aromatic_ring ring_built build_to_Nac build_DB_to_Cs2 build_SB_to_Cs2 build_to_Nd0 close_aliphatic_ring close_aliphatic_ring close_aliphatic_ring

>  <prot_clashes>  (755) 
5

>  <NBS phar>  (755) 
0.22000000000000003

>  <NBS_non-phar>  (755) 
0.4183107444218227

>  <NBS>  (755) 
0.6383107444218228

>  <source_stage>  (755) 
scored

>  <source_iter>  (755) 
11

>  <source_parent_mol>  (755) 
2

>  <source_scenario>  (755) 
1 2 3 1 7 1 0 8 5 8 2

>  <source_rank_in_scored_call>  (755) 
2

>  <source_current_task>  (755) 
close_aliphatic_ring

>  <scenario>  (755) 
1 2 3 1 7 1 0 8 5 8

>  <protected_ring_attachments>  (755) 
3,1,0,2|1,0,2;4,5,0,2|5,0,2

>  <current_task>  (755) 
no_task

>  <rotatable_bond_torsions>  (755) 
1,0,2,9;0,2,9,10;0,5,6,8;2,9,10,11;9,10,11,12

$$$$

     RDKit          3D

 15 16  0  0  0  0  0  0  0  0999 V2000
  -28.5490   -6.1930  -30.9100 C   0  0  0  0  0  0  0  0  0  0  0  0
  -27.8010   -6.3190  -32.0450 N   0  0  0  0  0  0  0  0  0  0  0  0
  -29.1890   -7.4000  -30.2870 N   0  0  0  0  0  0  0  0  0  0  0  0
  -27.3160   -5.1070  -32.3720 C   0  0  0  0  0  0  0  0  0  0  0  0
  -27.7730   -4.2390  -31.4270 N   0  0  0  0  0  0  0  0  0  0  0  0
  -28.5120   -4.8950  -30.5500 N   0  0  0  0  0  0  0  0  0  0  0  0
  -29.1110   -4.3290  -29.4440 C   0  0  0  0  0  0  0  0  0  0  0  0
  -29.8370   -4.9190  -28.6620 O   0  0  0  0  0  0  0  0  0  0  0  0
  -28.7790   -2.8820  -29.0150 C   0  0  0  0  0  0  0  0  0  0  0  0
  -28.2140   -8.2550  -29.6010 C   0  0  1  0  0  0  0  0  0  0  0  0
  -29.0680   -9.5140  -29.4150 C   0  0  0  0  0  0  0  0  0  0  0  0
  -29.0920   -9.8900  -28.0790 O   0  0  0  0  0  0  0  0  0  0  0  0
  -27.8360  -10.1720  -27.5660 C   0  0  0  0  0  0  0  0  0  0  0  0
  -26.9270   -8.9510  -27.6740 C   0  0  0  0  0  0  0  0  0  0  0  0
  -26.7840   -8.5620  -29.1360 C   0  0  0  0  0  0  0  0  0  0  0  0
  1  2  2  0
  1  6  1  0
  1  3  1  0
  2  4  1  0
 10  3  1  6
  4  5  2  0
  5  6  1  0
  6  7  1  0
  7  9  1  0
  7  8  2  0
 10 11  1  0
 10 15  1  0
 11 12  1  0
 12 13  1  0
 13 14  1  0
 14 15  1  0
M  END
>  <name>  (756) 
Car Nac Nd0 Car Nac Nac Cs2 .=O Cs3 C3r C3r O_a C3r C3r C3r

>  <indices>  (756) 
[0, 1, 2]

>  <tasks>  (756) 
probe_placing close_aromatic_ring close_aromatic_ring close_aromatic_ring ring_built build_to_Nac build_DB_to_Cs2 build_SB_to_Cs2 build_to_Nd0 close_aliphatic_ring close_aliphatic_ring close_aliphatic_ring close_aliphatic_ring

>  <prot_clashes>  (756) 
8

>  <NBS phar>  (756) 
0.2

>  <NBS_non-phar>  (756) 
0.5685317993164063

>  <NBS>  (756) 
0.7685317993164062

>  <source_stage>  (756) 
scored

>  <source_iter>  (756) 
12

>  <source_parent_mol>  (756) 
0

>  <source_scenario>  (756) 
1 2 3 1 7 1 0 8 5 8 2 0

>  <source_rank_in_scored_call>  (756) 
1

>  <source_current_task>  (756) 
close_aliphatic_ring

>  <scenario>  (756) 
1 2 3 1 7 1 0 8 5 8 2

>  <protected_ring_attachments>  (756) 
3,1,0,2|1,0,2;4,5,0,2|5,0,2

>  <current_task>  (756) 
no_task

>  <rotatable_bond_torsions>  (756) 
1,0,2,9;0,2,9,10;0,5,6,8;2,9,10,11;9,10,11,12;10,11,12,13

$$$$

     RDKit          3D

 15 16  0  0  0  0  0  0  0  0999 V2000
  -28.5500   -6.3390  -30.9170 C   0  0  0  0  0  0  0  0  0  0  0  0
  -27.8010   -6.4500  -32.0540 N   0  0  0  0  0  0  0  0  0  0  0  0
  -29.1850   -7.5540  -30.3070 N   0  0  0  0  0  0  0  0  0  0  0  0
  -27.3210   -5.2330  -32.3680 C   0  0  0  0  0  0  0  0  0  0  0  0
  -27.7800   -4.3770  -31.4130 N   0  0  0  0  0  0  0  0  0  0  0  0
  -28.5160   -5.0450  -30.5430 N   0  0  0  0  0  0  0  0  0  0  0  0
  -29.1180   -4.4920  -29.4310 C   0  0  0  0  0  0  0  0  0  0  0  0
  -29.8420   -5.0930  -28.6550 O   0  0  0  0  0  0  0  0  0  0  0  0
  -28.7900   -3.0490  -28.9870 C   0  0  0  0  0  0  0  0  0  0  0  0
  -28.1520   -8.4850  -29.5400 C   0  0  2  0  0  0  0  0  0  0  0  0
  -29.2860   -9.4030  -29.1370 C   0  0  0  0  0  0  0  0  0  0  0  0
  -28.8120  -10.5180  -28.4890 O   0  0  0  0  0  0  0  0  0  0  0  0
  -28.1230  -10.2190  -27.3380 C   0  0  0  0  0  0  0  0  0  0  0  0
  -26.9390   -9.3530  -27.6440 C   0  0  0  0  0  0  0  0  0  0  0  0
  -27.4350   -8.0770  -28.2800 C   0  0  0  0  0  0  0  0  0  0  0  0
  1  2  2  0
  1  6  1  0
  1  3  1  0
  2  4  1  0
 10  3  1  1
  4  5  2  0
  5  6  1  0
  6  7  1  0
  7  9  1  0
  7  8  2  0
 10 11  1  0
 10 15  1  0
 11 12  1  0
 12 13  1  0
 13 14  1  0
 14 15  1  0
M  END
>  <name>  (757) 
Car Nac Nd0 Car Nac Nac Cs2 .=O Cs3 C3r C3r O_a C3r C3r C3r

>  <indices>  (757) 
[0, 1, 2]

>  <tasks>  (757) 
probe_placing close_aromatic_ring close_aromatic_ring close_aromatic_ring ring_built build_to_Nac build_DB_to_Cs2 build_SB_to_Cs2 build_to_Nd0 close_aliphatic_ring close_aliphatic_ring close_aliphatic_ring close_aliphatic_ring

>  <prot_clashes>  (757) 
3

>  <NBS phar>  (757) 
0.2

>  <NBS_non-phar>  (757) 
0.5193050702412924

>  <NBS>  (757) 
0.7193050702412924

>  <source_stage>  (757) 
scored

>  <source_iter>  (757) 
12

>  <source_parent_mol>  (757) 
0

>  <source_scenario>  (757) 
1 2 3 1 7 1 0 8 5 8 2 0

>  <source_rank_in_scored_call>  (757) 
3

>  <source_current_task>  (757) 
close_aliphatic_ring

>  <scenario>  (757) 
1 2 3 1 7 1 0 8 5 8 2

>  <protected_ring_attachments>  (757) 
3,1,0,2|1,0,2;4,5,0,2|5,0,2

>  <current_task>  (757) 
no_task

>  <rotatable_bond_torsions>  (757) 
1,0,2,9;0,2,9,10;0,5,6,8;2,9,10,11;9,10,11,12;10,11,12,13

$$$$

     RDKit          3D

 15 16  0  0  0  0  0  0  0  0999 V2000
  -28.7280   -6.3140  -30.6480 C   0  0  0  0  0  0  0  0  0  0  0  0
  -27.9590   -6.6250  -31.7320 N   0  0  0  0  0  0  0  0  0  0  0  0
  -29.5270   -7.3810  -29.9560 N   0  0  0  0  0  0  0  0  0  0  0  0
  -27.3240   -5.5090  -32.1370 C   0  0  0  0  0  0  0  0  0  0  0  0
  -27.7110   -4.5140  -31.2900 N   0  0  0  0  0  0  0  0  0  0  0  0
  -28.5540   -5.0020  -30.3980 N   0  0  0  0  0  0  0  0  0  0  0  0
  -29.1220   -4.2750  -29.3730 C   0  0  0  0  0  0  0  0  0  0  0  0
  -29.9420   -4.7090  -28.5770 O   0  0  0  0  0  0  0  0  0  0  0  0
  -28.6400   -2.8430  -29.0500 C   0  0  0  0  0  0  0  0  0  0  0  0
  -28.6910   -8.3930  -29.3710 C   0  0  2  0  0  0  0  0  0  0  0  0
  -29.4730   -9.2170  -28.3970 C   0  0  0  0  0  0  0  0  0  0  0  0
  -28.6890  -10.4640  -28.0540 C   0  0  0  0  0  0  0  0  0  0  0  0
  -27.3570  -10.0770  -27.4370 C   0  0  0  0  0  0  0  0  0  0  0  0
  -26.5860   -9.2410  -28.4300 C   0  0  0  0  0  0  0  0  0  0  0  0
  -27.3870   -7.9980  -28.7770 C   0  0  0  0  0  0  0  0  0  0  0  0
  1  2  2  0
  1  6  1  0
  1  3  1  0
  2  4  1  0
 10  3  1  1
  4  5  2  0
  5  6  1  0
  6  7  1  0
  7  9  1  0
  7  8  2  0
 10 15  1  0
 10 11  1  0
 11 12  1  0
 12 13  1  0
 13 14  1  0
 14 15  1  0
M  END
>  <name>  (758) 
Car Nac Nd0 Car Nac Nac Cs2 .=O Cs3 C3r C3r C3r C3r C3r C3r

>  <indices>  (758) 
[0, 1, 2]

>  <tasks>  (758) 
probe_placing close_aromatic_ring close_aromatic_ring close_aromatic_ring ring_built build_to_Nac build_DB_to_Cs2 build_SB_to_Cs2 build_to_Nd0 close_aliphatic_ring close_aliphatic_ring close_aliphatic_ring close_aliphatic_ring

>  <prot_clashes>  (758) 
7

>  <NBS phar>  (758) 
0.1

>  <NBS_non-phar>  (758) 
0.532351303100586

>  <NBS>  (758) 
0.632351303100586

>  <source_stage>  (758) 
scored

>  <source_iter>  (758) 
12

>  <source_parent_mol>  (758) 
0

>  <source_scenario>  (758) 
1 2 3 1 7 1 0 8 5 9 0 0

>  <source_rank_in_scored_call>  (758) 
0

>  <source_current_task>  (758) 
close_aliphatic_ring

>  <scenario>  (758) 
1 2 3 1 7 1 0 8 5 9 0

>  <protected_ring_attachments>  (758) 
3,1,0,2|1,0,2;4,5,0,2|5,0,2

>  <current_task>  (758) 
no_task

>  <rotatable_bond_torsions>  (758) 
1,0,2,9;0,2,9,10;0,5,6,8;2,9,10,11;9,10,11,12;10,11,12,13

$$$$

     RDKit          3D

 15 16  0  0  0  0  0  0  0  0999 V2000
  -28.6910   -6.0380  -30.5850 C   0  0  0  0  0  0  0  0  0  0  0  0
  -28.2780   -6.4480  -31.8180 N   0  0  0  0  0  0  0  0  0  0  0  0
  -29.2520   -7.0290  -29.6020 N   0  0  0  0  0  0  0  0  0  0  0  0
  -27.7930   -5.3850  -32.4810 C   0  0  0  0  0  0  0  0  0  0  0  0
  -27.9140   -4.3180  -31.6440 N   0  0  0  0  0  0  0  0  0  0  0  0
  -28.4530   -4.7150  -30.5040 N   0  0  0  0  0  0  0  0  0  0  0  0
  -28.6910   -3.8960  -29.4200 C   0  0  0  0  0  0  0  0  0  0  0  0
  -29.2400   -4.2470  -28.3860 O   0  0  0  0  0  0  0  0  0  0  0  0
  -28.1360   -2.4550  -29.3730 C   0  0  0  0  0  0  0  0  0  0  0  0
  -28.8890   -8.3590  -29.4790 C   0  0  0  0  0  0  0  0  0  0  0  0
  -27.6310   -9.0940  -29.7420 C   0  0  0  0  0  0  0  0  0  0  0  0
  -27.8580  -10.5470  -29.4000 C   0  0  0  0  0  0  0  0  0  0  0  0
  -29.3280  -10.5790  -29.0270 C   0  0  0  0  0  0  0  0  0  0  0  0
  -29.8340   -9.2060  -29.0770 C   0  0  0  0  0  0  0  0  0  0  0  0
  -26.2980   -8.3100  -30.2100 C   0  0  0  0  0  0  0  0  0  0  0  0
  1  2  2  0
  1  6  1  0
  1  3  1  0
  2  4  1  0
  3 10  1  0
  4  5  2  0
  5  6  1  0
  6  7  1  0
  7  9  1  0
  7  8  2  0
 10 11  2  0
 10 14  1  0
 11 15  1  0
 11 12  1  0
 12 13  1  0
 13 14  1  0
M  END
>  <name>  (759) 
Car Nac Nd0 Car Nac Nac Cs2 .=O Cs3 C2r C2r C3r C3r C3r Cs3

>  <indices>  (759) 
[0, 1, 2]

>  <tasks>  (759) 
probe_placing close_aromatic_ring close_aromatic_ring close_aromatic_ring ring_built build_to_Nac build_DB_to_Cs2 build_SB_to_Cs2 build_to_Nd0 close_aliphatic_ring close_aliphatic_ring close_aliphatic_ring close_aliphatic_ring

>  <prot_clashes>  (759) 
11

>  <NBS phar>  (759) 
0.1

>  <NBS_non-phar>  (759) 
0.30442015329996747

>  <NBS>  (759) 
0.4044201532999675

>  <source_stage>  (759) 
scored

>  <source_iter>  (759) 
12

>  <source_parent_mol>  (759) 
3

>  <source_scenario>  (759) 
1 2 3 1 7 1 0 9 2 6 2 3

>  <source_rank_in_scored_call>  (759) 
0

>  <source_current_task>  (759) 
build_SB_to_Cs2

>  <scenario>  (759) 
1 2 3 1 7 1 0 9 2 6 2

>  <protected_ring_attachments>  (759) 
3,1,0,2|1,0,2;4,5,0,2|5,0,2;11,10,9,2|10,9,2;12,13,9,2|13,9,2

>  <current_task>  (759) 
no_task

>  <rotatable_bond_torsions>  (759) 
1,0,2,9;0,2,9,10;0,5,6,8

>  <reason_to_skip>  (759) 
global_duplicate

>  <global_duplicate_rmsd>  (759) 
0.0

>  <global_duplicate_old_source_iter>  (759) 
11

>  <global_duplicate_old_source_parent_mol>  (759) 
2

>  <global_duplicate_old_index>  (759) 
NA

>  <global_duplicate_rotatable_bond_torsions>  (759) 
1,0,2,9;0,2,9,10;0,5,6,8

>  <global_duplicate_old_rotatable_bond_torsions>  (759) 
1,0,2,9;0,2,9,10;0,5,6,8

>  <global_duplicate_last_growth_torsion>  (759) 
(10, 11, 12, 13)

>  <global_duplicate_protected_ring_attachments>  (759) 
3,1,0,2|1,0,2;4,5,0,2|5,0,2;11,10,9,2|10,9,2;12,13,9,2|13,9,2

>  <global_duplicate_old_last_growth_torsion>  (759) 
(10, 11, 12, 13)

>  <global_duplicate_old_protected_ring_attachments>  (759) 
3,1,0,2|1,0,2;4,5,0,2|5,0,2;11,10,9,2|10,9,2;12,13,9,2|13,9,2

$$$$

     RDKit          3D

 17 18  0  0  0  0  0  0  0  0999 V2000
  -28.1770   -6.8470  -30.9450 C   0  0  0  0  0  0  0  0  0  0  0  0
  -27.9970   -6.9980  -32.2890 N   0  0  0  0  0  0  0  0  0  0  0  0
  -28.1280   -8.0440  -30.0330 N   0  0  0  0  0  0  0  0  0  0  0  0
  -28.0500   -5.7820  -32.8620 C   0  0  0  0  0  0  0  0  0  0  0  0
  -28.2650   -4.8880  -31.8570 N   0  0  0  0  0  0  0  0  0  0  0  0
  -28.3400   -5.5330  -30.7060 N   0  0  0  0  0  0  0  0  0  0  0  0
  -28.5260   -4.9310  -29.4780 C   0  0  0  0  0  0  0  0  0  0  0  0
  -28.6480   -5.5240  -28.4200 O   0  0  0  0  0  0  0  0  0  0  0  0
  -28.5020   -3.3400  -29.4230 C   0  0  0  0  0  0  0  0  0  0  0  0
  -27.8000   -2.5960  -30.3420 C   0  0  0  0  0  0  0  0  0  0  0  0
  -29.1880   -2.7250  -28.3770 C   0  0  0  0  0  0  0  0  0  0  0  0
  -29.1940   -1.3530  -28.2190 C   0  0  0  0  0  0  0  0  0  0  0  0
  -28.4800   -0.6030  -29.1520 C   0  0  0  0  0  0  0  0  0  0  0  0
  -27.7960   -1.2240  -30.1960 C   0  0  0  0  0  0  0  0  0  0  0  0
  -28.7230   -9.2980  -30.3890 C   0  0  0  0  0  0  0  0  0  0  0  0
  -29.1890   -9.5720  -31.4740 O   0  0  0  0  0  0  0  0  0  0  0  0
  -28.7450  -10.3650  -29.3430 C   0  0  0  0  0  0  0  0  0  0  0  0
  1  2  2  0
  1  6  1  0
  1  3  1  0
  2  4  1  0
  3 15  1  0
  4  5  2  0
  5  6  1  0
  6  7  1  0
  7  9  1  0
  7  8  2  0
 15 16  2  0
 15 17  1  0
  9 10  2  0
  9 11  1  0
 10 14  1  0
 11 12  2  0
 12 13  1  0
 13 14  2  0
M  END
>  <name>  (760) 
Car Nac Nd0 Car Nac Nac Cs2 .=O Car Car Car Car Car Car Cs2 .=O Cs3

>  <indices>  (760) 
[0, 1, 2]

>  <tasks>  (760) 
probe_placing close_aromatic_ring close_aromatic_ring close_aromatic_ring ring_built build_to_Nac build_DB_to_Cs2 build_SB_to_Cs2 close_aromatic_ring close_aromatic_ring close_aromatic_ring close_aromatic_ring close_aromatic_ring build_to_Nd0 build_DB_to_Cs2

>  <prot_clashes>  (760) 
7

>  <NBS phar>  (760) 
0.3000000000000001

>  <NBS_non-phar>  (760) 
0.5046795115751379

>  <NBS>  (760) 
0.804679511575138

>  <source_stage>  (760) 
scored

>  <source_iter>  (760) 
14

>  <source_parent_mol>  (760) 
0

>  <source_scenario>  (760) 
1 2 3 1 7 1 1 3 8 1 0 0 5 0

>  <source_rank_in_scored_call>  (760) 
2

>  <source_current_task>  (760) 
build_SB_to_Cs2

>  <scenario>  (760) 
1 2 3 1 7 1 1 3 8 1 0 0 5

>  <protected_ring_attachments>  (760) 
3,1,0,2|1,0,2;4,5,0,2|5,0,2

>  <current_task>  (760) 
no_task

>  <rotatable_bond_torsions>  (760) 
1,0,2,14;0,2,14,15;0,5,6,8;5,6,8,9

$$$$

     RDKit          3D

 17 19  0  0  0  0  0  0  0  0999 V2000
  -28.0040   -7.4920  -30.7590 C   0  0  0  0  0  0  0  0  0  0  0  0
  -27.5210   -6.4990  -31.5650 N   0  0  0  0  0  0  0  0  0  0  0  0
  -27.7830   -8.8860  -31.1200 N   0  0  0  0  0  0  0  0  0  0  0  0
  -27.8850   -5.3140  -31.0300 C   0  0  0  0  0  0  0  0  0  0  0  0
  -28.6020   -5.5710  -29.8820 C   0  0  0  0  0  0  0  0  0  0  0  0
  -28.6670   -6.9010  -29.7280 N   0  0  0  0  0  0  0  0  0  0  0  0
  -29.0960   -4.5000  -29.1340 C   0  0  0  0  0  0  0  0  0  0  0  0
  -28.8890   -3.2350  -29.5130 N   0  0  0  0  0  0  0  0  0  0  0  0
  -28.1970   -2.9430  -30.6230 C   0  0  0  0  0  0  0  0  0  0  0  0
  -27.7000   -3.9880  -31.3730 C   0  0  0  0  0  0  0  0  0  0  0  0
  -28.3060   -9.8960  -30.3330 C   0  0  0  0  0  0  0  0  0  0  0  0
  -29.3240  -10.6910  -30.8490 C   0  0  0  0  0  0  0  0  0  0  0  0
  -29.8700  -11.7090  -30.0930 C   0  0  0  0  0  0  0  0  0  0  0  0
  -29.3800  -11.9210  -28.8000 C   0  0  0  0  0  0  0  0  0  0  0  0
  -28.3550  -11.1070  -28.3070 C   0  0  0  0  0  0  0  0  0  0  0  0
  -27.8500  -10.1310  -29.0690 N   0  0  0  0  0  0  0  0  0  0  0  0
  -29.7890  -10.4620  -32.1230 O   0  0  0  0  0  0  0  0  0  0  0  0
  1  2  2  0
  1  3  1  0
  1  6  1  0
  2  4  1  0
  3 11  1  0
  4 10  2  0
  4  5  1  0
  5  6  1  0
  5  7  2  0
  7  8  1  0
  8  9  2  0
  9 10  1  0
 11 12  2  0
 11 16  1  0
 12 17  1  0
 12 13  1  0
 13 14  2  0
 14 15  1  0
 15 16  2  0
M  CHG  1  17  -1
M  END
>  <name>  (761) 
Car Nac Nd0 Car Car Nd0 Car Nac Car Car Car Car Car Car Car Nac .=O

>  <indices>  (761) 
[0, 1, 2]

>  <tasks>  (761) 
probe_placing close_aromatic_ring close_aromatic_ring close_aromatic_ring ring_built fix_Car close_aromatic_ring close_aromatic_ring close_aromatic_ring build_to_Nd0 close_aromatic_ring close_aromatic_ring close_aromatic_ring close_aromatic_ring close_aromatic_ring

>  <prot_clashes>  (761) 
1

>  <NBS phar>  (761) 
0.18

>  <NBS_non-phar>  (761) 
0.6570126028621898

>  <NBS>  (761) 
0.8370126028621898

>  <source_stage>  (761) 
scored

>  <source_iter>  (761) 
14

>  <source_parent_mol>  (761) 
0

>  <source_scenario>  (761) 
1 2 4 0 2 8 0 0 0 3 1 2 2 0

>  <source_rank_in_scored_call>  (761) 
1

>  <source_current_task>  (761) 
build_orthosubstituent_to_rotated_aniline_Nd0

>  <scenario>  (761) 
1 2 4 0 2 8 0 0 0 3 1 2 2

>  <protected_ring_attachments>  (761) 
0,5,4,6|5,4,6;1,3,4,6|3,4,6;3,1,0,2|1,0,2;4,5,0,2|5,0,2;12,11,10,2|11,10,2;14,15,10,2|15,10,2

>  <current_task>  (761) 
no_task

>  <rotatable_bond_torsions>  (761) 
1,0,2,10;0,2,10,11

>  <rotated_aniline_Nd0_dihedral>  (761) 
112.1

>  <rotated_aniline_Nd0_tolerance>  (761) 
60.0

>  <rotated_aniline_Nd0_context>  (761) 
diarylamine

>  <rotated_aniline_Nd0_substituent_idx>  (761) 
0

>  <rotated_aniline_Nd0_ring>  (761) 
11 12 13 14 15 10

>  <flag ortho>  (761) 


$$$$

     RDKit          3D

 17 19  0  0  0  0  0  0  0  0999 V2000
  -27.8100   -7.3270  -30.5170 C   0  0  0  0  0  0  0  0  0  0  0  0
  -27.4100   -6.4070  -31.4450 N   0  0  0  0  0  0  0  0  0  0  0  0
  -27.5460   -8.7410  -30.7440 N   0  0  0  0  0  0  0  0  0  0  0  0
  -27.7990   -5.1860  -31.0170 C   0  0  0  0  0  0  0  0  0  0  0  0
  -28.4480   -5.3480  -29.8130 C   0  0  0  0  0  0  0  0  0  0  0  0
  -28.4470   -6.6560  -29.5200 N   0  0  0  0  0  0  0  0  0  0  0  0
  -28.9510   -4.2240  -29.1540 C   0  0  0  0  0  0  0  0  0  0  0  0
  -28.8170   -2.9990  -29.6720 N   0  0  0  0  0  0  0  0  0  0  0  0
  -28.1930   -2.7990  -30.8410 C   0  0  0  0  0  0  0  0  0  0  0  0
  -27.6870   -3.8980  -31.5040 C   0  0  0  0  0  0  0  0  0  0  0  0
  -27.9870   -9.6820  -29.8310 C   0  0  0  0  0  0  0  0  0  0  0  0
  -28.9930  -10.5650  -30.2090 C   0  0  0  0  0  0  0  0  0  0  0  0
  -29.4580  -11.5180  -29.3240 C   0  0  0  0  0  0  0  0  0  0  0  0
  -28.8970  -11.5750  -28.0440 C   0  0  0  0  0  0  0  0  0  0  0  0
  -27.8860  -10.6750  -27.6910 C   0  0  0  0  0  0  0  0  0  0  0  0
  -27.4620   -9.7660  -28.5740 N   0  0  0  0  0  0  0  0  0  0  0  0
  -29.5820  -10.4820  -31.5960 C   0  0  0  0  0  0  0  0  0  0  0  0
  1  2  2  0
  1  3  1  0
  1  6  1  0
  2  4  1  0
  3 11  1  0
  4 10  2  0
  4  5  1  0
  5  6  1  0
  5  7  2  0
  7  8  1  0
  8  9  2  0
  9 10  1  0
 11 12  2  0
 11 16  1  0
 12 17  1  0
 12 13  1  0
 13 14  2  0
 14 15  1  0
 15 16  2  0
M  END
>  <name>  (762) 
Car Nac Nd0 Car Car Nd0 Car Nac Car Car Car Car Car Car Car Nac Cs3

>  <indices>  (762) 
[0, 1, 2]

>  <tasks>  (762) 
probe_placing close_aromatic_ring close_aromatic_ring close_aromatic_ring ring_built fix_Car close_aromatic_ring close_aromatic_ring close_aromatic_ring build_to_Nd0 close_aromatic_ring close_aromatic_ring close_aromatic_ring close_aromatic_ring close_aromatic_ring

>  <prot_clashes>  (762) 
3

>  <NBS phar>  (762) 
0.18

>  <NBS_non-phar>  (762) 
0.4913153367884019

>  <NBS>  (762) 
0.6713153367884019

>  <source_stage>  (762) 
scored

>  <source_iter>  (762) 
14

>  <source_parent_mol>  (762) 
0

>  <source_scenario>  (762) 
1 2 4 0 2 8 0 0 0 3 1 2 2 0

>  <source_rank_in_scored_call>  (762) 
11

>  <source_current_task>  (762) 
build_orthosubstituent_to_rotated_aniline_Nd0

>  <scenario>  (762) 
1 2 4 0 2 8 0 0 0 3 1 2 2

>  <protected_ring_attachments>  (762) 
0,5,4,6|5,4,6;1,3,4,6|3,4,6;3,1,0,2|1,0,2;4,5,0,2|5,0,2;12,11,10,2|11,10,2;14,15,10,2|15,10,2

>  <current_task>  (762) 
no_task

>  <rotatable_bond_torsions>  (762) 
1,0,2,10;0,2,10,11

>  <rotated_aniline_Nd0_dihedral>  (762) 
112.1

>  <rotated_aniline_Nd0_tolerance>  (762) 
60.0

>  <rotated_aniline_Nd0_context>  (762) 
diarylamine

>  <rotated_aniline_Nd0_substituent_idx>  (762) 
0

>  <rotated_aniline_Nd0_ring>  (762) 
11 12 13 14 15 10

>  <flag ortho>  (762) 


$$$$

     RDKit          3D

 13 14  0  0  0  0  0  0  0  0999 V2000
  -28.4290   -7.4610  -31.3540 C   0  0  0  0  0  0  0  0  0  0  0  0
  -27.8160   -6.4210  -31.9930 N   0  0  0  0  0  0  0  0  0  0  0  0
  -28.3740   -8.7970  -31.9370 N   0  0  0  0  0  0  0  0  0  0  0  0
  -28.0390   -5.3000  -31.2730 C   0  0  0  0  0  0  0  0  0  0  0  0
  -28.7990   -5.6490  -30.1770 C   0  0  0  0  0  0  0  0  0  0  0  0
  -29.0290   -6.9660  -30.2400 N   0  0  0  0  0  0  0  0  0  0  0  0
  -29.1720   -4.6580  -29.2650 C   0  0  0  0  0  0  0  0  0  0  0  0
  -28.8060   -3.3840  -29.4340 N   0  0  0  0  0  0  0  0  0  0  0  0
  -28.0660   -3.0060  -30.4880 C   0  0  0  0  0  0  0  0  0  0  0  0
  -27.6890   -3.9700  -31.3980 C   0  0  0  0  0  0  0  0  0  0  0  0
  -28.6890   -9.8580  -31.2750 C   0  0  0  0  0  0  0  0  0  0  0  0
  -29.2080   -9.9780  -30.1410 O   0  0  0  0  0  0  0  0  0  0  0  0
  -28.4430  -11.2320  -31.9280 C   0  0  0  0  0  0  0  0  0  0  0  0
  1  2  2  0
  1  3  1  0
  1  6  1  0
  2  4  1  0
  3 11  1  0
  4 10  1  0
  4  5  2  0
  5  6  1  0
  5  7  1  0
  7  8  2  0
  8  9  1  0
  9 10  2  0
 11 13  1  0
 11 12  2  0
M  END
>  <name>  (763) 
Car Nac Nd0 Car Car Nd0 Car Nac Car Car Cs2 .=O Cs3

>  <indices>  (763) 
[0, 1, 2]

>  <tasks>  (763) 
probe_placing close_aromatic_ring close_aromatic_ring close_aromatic_ring ring_built fix_Car close_aromatic_ring close_aromatic_ring close_aromatic_ring build_to_Nd0 build_DB_to_Cs2

>  <prot_clashes>  (763) 
1

>  <NBS phar>  (763) 
0.2800000000000001

>  <NBS_non-phar>  (763) 
0.7047375899094802

>  <NBS>  (763) 
0.9847375899094803

>  <source_stage>  (763) 
scored

>  <source_iter>  (763) 
10

>  <source_parent_mol>  (763) 
0

>  <source_scenario>  (763) 
1 2 4 0 2 8 0 0 1 0

>  <source_rank_in_scored_call>  (763) 
1

>  <source_current_task>  (763) 
build_SB_to_Cs2

>  <scenario>  (763) 
1 2 4 0 2 8 0 0 1

>  <protected_ring_attachments>  (763) 
0,5,4,6|5,4,6;1,3,4,6|3,4,6;3,1,0,2|1,0,2;4,5,0,2|5,0,2

>  <current_task>  (763) 
no_task

>  <rotatable_bond_torsions>  (763) 
1,0,2,10;0,2,10,11

$$$$

     RDKit          3D

 14 15  0  0  0  0  0  0  0  0999 V2000
  -28.4290   -7.4610  -31.3540 C   0  0  0  0  0  0  0  0  0  0  0  0
  -27.8160   -6.4210  -31.9930 N   0  0  0  0  0  0  0  0  0  0  0  0
  -28.3740   -8.7970  -31.9370 N   0  0  0  0  0  0  0  0  0  0  0  0
  -28.0380   -5.3000  -31.2730 C   0  0  0  0  0  0  0  0  0  0  0  0
  -28.7990   -5.6490  -30.1770 C   0  0  0  0  0  0  0  0  0  0  0  0
  -29.0290   -6.9660  -30.2400 N   0  0  0  0  0  0  0  0  0  0  0  0
  -29.1710   -4.6580  -29.2640 C   0  0  0  0  0  0  0  0  0  0  0  0
  -28.8050   -3.3840  -29.4330 N   0  0  0  0  0  0  0  0  0  0  0  0
  -28.0650   -3.0060  -30.4870 C   0  0  0  0  0  0  0  0  0  0  0  0
  -27.6880   -3.9700  -31.3970 C   0  0  0  0  0  0  0  0  0  0  0  0
  -28.6890   -9.8580  -31.2750 C   0  0  0  0  0  0  0  0  0  0  0  0
  -29.2090   -9.9780  -30.1420 O   0  0  0  0  0  0  0  0  0  0  0  0
  -28.4440  -11.2320  -31.9290 C   0  0  0  0  0  0  0  0  0  0  0  0
  -28.1490  -12.3880  -31.0110 C   0  0  0  0  0  0  0  0  0  0  0  0
  1  2  2  0
  1  3  1  0
  1  6  1  0
  2  4  1  0
  3 11  1  0
  4 10  1  0
  4  5  2  0
  5  6  1  0
  5  7  1  0
  7  8  2  0
  8  9  1  0
  9 10  2  0
 11 13  1  0
 11 12  2  0
 13 14  1  0
M  END
>  <name>  (764) 
Car Nac Nd0 Car Car Nd0 Car Nac Car Car Cs2 .=O Cs3 Cs3

>  <indices>  (764) 
[0, 1, 2]

>  <tasks>  (764) 
probe_placing close_aromatic_ring close_aromatic_ring close_aromatic_ring ring_built fix_Car close_aromatic_ring close_aromatic_ring close_aromatic_ring build_to_Nd0 build_DB_to_Cs2 build_SB_to_Cs2

>  <prot_clashes>  (764) 
1

>  <NBS phar>  (764) 
0.3000000000000001

>  <NBS_non-phar>  (764) 
0.6850679261343819

>  <NBS>  (764) 
0.985067926134382

>  <source_stage>  (764) 
scored

>  <source_iter>  (764) 
11

>  <source_parent_mol>  (764) 
1

>  <source_scenario>  (764) 
1 2 4 0 2 8 0 0 1 0 1

>  <source_rank_in_scored_call>  (764) 
2

>  <source_current_task>  (764) 
no_task

>  <scenario>  (764) 
1 2 4 0 2 8 0 0 1 0

>  <protected_ring_attachments>  (764) 
0,5,4,6|5,4,6;1,3,4,6|3,4,6;3,1,0,2|1,0,2;4,5,0,2|5,0,2

>  <current_task>  (764) 
no_task

>  <rotatable_bond_torsions>  (764) 
1,0,2,10;0,2,10,12

$$$$

     RDKit          3D

 14 15  0  0  0  0  0  0  0  0999 V2000
  -28.4400   -7.4850  -31.3580 C   0  0  0  0  0  0  0  0  0  0  0  0
  -27.8500   -6.4350  -32.0020 N   0  0  0  0  0  0  0  0  0  0  0  0
  -28.3900   -8.8160  -31.9530 N   0  0  0  0  0  0  0  0  0  0  0  0
  -28.0630   -5.3220  -31.2670 C   0  0  0  0  0  0  0  0  0  0  0  0
  -28.7950   -5.6860  -30.1570 C   0  0  0  0  0  0  0  0  0  0  0  0
  -29.0170   -7.0040  -30.2260 N   0  0  0  0  0  0  0  0  0  0  0  0
  -29.1530   -4.7050  -29.2270 C   0  0  0  0  0  0  0  0  0  0  0  0
  -28.7990   -3.4270  -29.3940 N   0  0  0  0  0  0  0  0  0  0  0  0
  -28.0870   -3.0350  -30.4620 C   0  0  0  0  0  0  0  0  0  0  0  0
  -27.7250   -3.9890  -31.3890 C   0  0  0  0  0  0  0  0  0  0  0  0
  -28.6820   -9.8840  -31.2930 C   0  0  0  0  0  0  0  0  0  0  0  0
  -29.1730  -10.0180  -30.1490 O   0  0  0  0  0  0  0  0  0  0  0  0
  -28.4420  -11.2510  -31.9640 C   0  0  0  0  0  0  0  0  0  0  0  0
  -27.6930   -1.5900  -30.6430 C   0  0  0  0  0  0  0  0  0  0  0  0
  1  2  2  0
  1  3  1  0
  1  6  1  0
  2  4  1  0
  3 11  1  0
  4 10  1  0
  4  5  2  0
  5  6  1  0
  5  7  1  0
  7  8  2  0
  8  9  1  0
  9 10  2  0
  9 14  1  0
 11 13  1  0
 11 12  2  0
M  END
>  <name>  (765) 
Car Nac Nd0 Car Car Nd0 Car Nac Car Car Cs2 .=O Cs3 Cs3

>  <indices>  (765) 
[0, 1, 2]

>  <tasks>  (765) 
probe_placing close_aromatic_ring close_aromatic_ring close_aromatic_ring ring_built fix_Car close_aromatic_ring close_aromatic_ring close_aromatic_ring build_to_Nd0 build_DB_to_Cs2 build_SB_to_Cs2

>  <prot_clashes>  (765) 
2

>  <NBS phar>  (765) 
0.2800000000000001

>  <NBS_non-phar>  (765) 
0.6389752796718052

>  <NBS>  (765) 
0.9189752796718054

>  <source_stage>  (765) 
scored

>  <source_iter>  (765) 
11

>  <source_parent_mol>  (765) 
1

>  <source_scenario>  (765) 
1 2 4 0 2 8 0 0 1 0 1

>  <source_rank_in_scored_call>  (765) 
16

>  <source_current_task>  (765) 
no_task

>  <scenario>  (765) 
1 2 4 0 2 8 0 0 1 0

>  <protected_ring_attachments>  (765) 
0,5,4,6|5,4,6;1,3,4,6|3,4,6;3,1,0,2|1,0,2;4,5,0,2|5,0,2

>  <current_task>  (765) 
no_task

>  <rotatable_bond_torsions>  (765) 
1,0,2,10;0,2,10,12

$$$$

     RDKit          3D

 14 15  0  0  0  0  0  0  0  0999 V2000
  -28.2770   -7.4410  -31.2600 C   0  0  0  0  0  0  0  0  0  0  0  0
  -27.7620   -6.3910  -31.9670 N   0  0  0  0  0  0  0  0  0  0  0  0
  -28.2000   -8.7880  -31.8130 N   0  0  0  0  0  0  0  0  0  0  0  0
  -27.9860   -5.2620  -31.2600 C   0  0  0  0  0  0  0  0  0  0  0  0
  -28.6470   -5.6160  -30.1030 C   0  0  0  0  0  0  0  0  0  0  0  0
  -28.8180   -6.9430  -30.1170 N   0  0  0  0  0  0  0  0  0  0  0  0
  -29.0010   -4.6180  -29.1900 C   0  0  0  0  0  0  0  0  0  0  0  0
  -28.7090   -3.3340  -29.4160 N   0  0  0  0  0  0  0  0  0  0  0  0
  -28.0670   -2.9510  -30.5310 C   0  0  0  0  0  0  0  0  0  0  0  0
  -27.7100   -3.9220  -31.4430 C   0  0  0  0  0  0  0  0  0  0  0  0
  -28.4150   -9.8440  -31.1050 C   0  0  0  0  0  0  0  0  0  0  0  0
  -28.8440   -9.9560  -29.9330 O   0  0  0  0  0  0  0  0  0  0  0  0
  -28.1510  -11.2230  -31.7410 C   0  0  0  0  0  0  0  0  0  0  0  0
  -29.0790  -12.2350  -31.2550 C   0  0  0  0  0  0  0  0  0  0  0  0
  1  2  2  0
  1  3  1  0
  1  6  1  0
  2  4  1  0
  3 11  1  0
  4 10  1  0
  4  5  2  0
  5  6  1  0
  5  7  1  0
  7  8  2  0
  8  9  1  0
  9 10  2  0
 11 13  1  0
 11 12  2  0
 13 14  1  0
M  END
>  <name>  (766) 
Car Nac Nd0 Car Car Nd0 Car Nac Car Car Cs2 .=O Cs3 Cs3

>  <indices>  (766) 
[0, 1, 2]

>  <tasks>  (766) 
probe_placing close_aromatic_ring close_aromatic_ring close_aromatic_ring ring_built fix_Car close_aromatic_ring close_aromatic_ring close_aromatic_ring build_to_Nd0 build_DB_to_Cs2 build_SB_to_Cs2

>  <prot_clashes>  (766) 
2

>  <NBS phar>  (766) 
0.26000000000000006

>  <NBS_non-phar>  (766) 
0.6102957044328962

>  <NBS>  (766) 
0.8702957044328963

>  <source_stage>  (766) 
scored

>  <source_iter>  (766) 
11

>  <source_parent_mol>  (766) 
1

>  <source_scenario>  (766) 
1 2 4 0 2 8 0 0 1 0 1

>  <source_rank_in_scored_call>  (766) 
27

>  <source_current_task>  (766) 
no_task

>  <scenario>  (766) 
1 2 4 0 2 8 0 0 1 0

>  <protected_ring_attachments>  (766) 
0,5,4,6|5,4,6;1,3,4,6|3,4,6;3,1,0,2|1,0,2;4,5,0,2|5,0,2

>  <current_task>  (766) 
no_task

>  <rotatable_bond_torsions>  (766) 
1,0,2,10;0,2,10,12

$$$$

     RDKit          3D

 14 15  0  0  0  0  0  0  0  0999 V2000
  -28.1930   -7.4630  -31.1690 C   0  0  0  0  0  0  0  0  0  0  0  0
  -27.6710   -6.4330  -31.8990 N   0  0  0  0  0  0  0  0  0  0  0  0
  -28.0610   -8.8310  -31.6590 N   0  0  0  0  0  0  0  0  0  0  0  0
  -27.9530   -5.2810  -31.2520 C   0  0  0  0  0  0  0  0  0  0  0  0
  -28.6570   -5.6000  -30.1110 C   0  0  0  0  0  0  0  0  0  0  0  0
  -28.7960   -6.9310  -30.0740 N   0  0  0  0  0  0  0  0  0  0  0  0
  -29.0730   -4.5740  -29.2590 C   0  0  0  0  0  0  0  0  0  0  0  0
  -28.8010   -3.2930  -29.5280 N   0  0  0  0  0  0  0  0  0  0  0  0
  -28.1180   -2.9430  -30.6290 C   0  0  0  0  0  0  0  0  0  0  0  0
  -27.7000   -3.9420  -31.4810 C   0  0  0  0  0  0  0  0  0  0  0  0
  -28.2830   -9.8600  -30.9140 C   0  0  0  0  0  0  0  0  0  0  0  0
  -28.7610   -9.9330  -29.7590 O   0  0  0  0  0  0  0  0  0  0  0  0
  -27.9590  -11.2580  -31.4770 C   0  0  0  0  0  0  0  0  0  0  0  0
  -29.2070  -11.8460  -32.1390 C   0  0  0  0  0  0  0  0  0  0  0  0
  1  2  2  0
  1  3  1  0
  1  6  1  0
  2  4  1  0
  3 11  1  0
  4 10  1  0
  4  5  2  0
  5  6  1  0
  5  7  1  0
  7  8  2  0
  8  9  1  0
  9 10  2  0
 11 13  1  0
 11 12  2  0
 13 14  1  0
M  END
>  <name>  (767) 
Car Nac Nd0 Car Car Nd0 Car Nac Car Car Cs2 .=O Cs3 Cs3

>  <indices>  (767) 
[0, 1, 2]

>  <tasks>  (767) 
probe_placing close_aromatic_ring close_aromatic_ring close_aromatic_ring ring_built fix_Car close_aromatic_ring close_aromatic_ring close_aromatic_ring build_to_Nd0 build_DB_to_Cs2 build_SB_to_Cs2

>  <prot_clashes>  (767) 
2

>  <NBS phar>  (767) 
0.26000000000000006

>  <NBS_non-phar>  (767) 
0.6029746873038155

>  <NBS>  (767) 
0.8629746873038155

>  <source_stage>  (767) 
scored

>  <source_iter>  (767) 
11

>  <source_parent_mol>  (767) 
1

>  <source_scenario>  (767) 
1 2 4 0 2 8 0 0 1 0 1

>  <source_rank_in_scored_call>  (767) 
30

>  <source_current_task>  (767) 
no_task

>  <scenario>  (767) 
1 2 4 0 2 8 0 0 1 0

>  <protected_ring_attachments>  (767) 
0,5,4,6|5,4,6;1,3,4,6|3,4,6;3,1,0,2|1,0,2;4,5,0,2|5,0,2

>  <current_task>  (767) 
no_task

>  <rotatable_bond_torsions>  (767) 
1,0,2,10;0,2,10,12

$$$$

     RDKit          3D

 14 15  0  0  0  0  0  0  0  0999 V2000
  -28.2470   -7.4510  -31.2210 C   0  0  0  0  0  0  0  0  0  0  0  0
  -27.7540   -6.4040  -31.9460 N   0  0  0  0  0  0  0  0  0  0  0  0
  -28.1280   -8.8080  -31.7430 N   0  0  0  0  0  0  0  0  0  0  0  0
  -28.0160   -5.2660  -31.2660 C   0  0  0  0  0  0  0  0  0  0  0  0
  -28.6800   -5.6120  -30.1080 C   0  0  0  0  0  0  0  0  0  0  0  0
  -28.8140   -6.9440  -30.0950 N   0  0  0  0  0  0  0  0  0  0  0  0
  -29.0700   -4.6050  -29.2220 C   0  0  0  0  0  0  0  0  0  0  0  0
  -28.8120   -3.3180  -29.4730 N   0  0  0  0  0  0  0  0  0  0  0  0
  -28.1670   -2.9430  -30.5890 C   0  0  0  0  0  0  0  0  0  0  0  0
  -27.7750   -3.9220  -31.4750 C   0  0  0  0  0  0  0  0  0  0  0  0
  -28.3210   -9.8530  -31.0130 C   0  0  0  0  0  0  0  0  0  0  0  0
  -28.7600   -9.9520  -29.8440 O   0  0  0  0  0  0  0  0  0  0  0  0
  -28.0130  -11.2370  -31.6160 C   0  0  0  0  0  0  0  0  0  0  0  0
  -29.2190  -12.1220  -31.7640 C   0  0  0  0  0  0  0  0  0  0  0  0
  1  2  2  0
  1  3  1  0
  1  6  1  0
  2  4  1  0
  3 11  1  0
  4 10  1  0
  4  5  2  0
  5  6  1  0
  5  7  1  0
  7  8  2  0
  8  9  1  0
  9 10  2  0
 11 13  1  0
 11 12  2  0
 13 14  1  0
M  END
>  <name>  (768) 
Car Nac Nd0 Car Car Nd0 Car Nac Car Car Cs2 .=O Cs3 Cs3

>  <indices>  (768) 
[0, 1, 2]

>  <tasks>  (768) 
probe_placing close_aromatic_ring close_aromatic_ring close_aromatic_ring ring_built fix_Car close_aromatic_ring close_aromatic_ring close_aromatic_ring build_to_Nd0 build_DB_to_Cs2 build_SB_to_Cs2

>  <prot_clashes>  (768) 
2

>  <NBS phar>  (768) 
0.26000000000000006

>  <NBS_non-phar>  (768) 
0.5969364302498954

>  <NBS>  (768) 
0.8569364302498954

>  <source_stage>  (768) 
scored

>  <source_iter>  (768) 
11

>  <source_parent_mol>  (768) 
1

>  <source_scenario>  (768) 
1 2 4 0 2 8 0 0 1 0 1

>  <source_rank_in_scored_call>  (768) 
32

>  <source_current_task>  (768) 
no_task

>  <scenario>  (768) 
1 2 4 0 2 8 0 0 1 0

>  <protected_ring_attachments>  (768) 
0,5,4,6|5,4,6;1,3,4,6|3,4,6;3,1,0,2|1,0,2;4,5,0,2|5,0,2

>  <current_task>  (768) 
no_task

>  <rotatable_bond_torsions>  (768) 
1,0,2,10;0,2,10,12

$$$$

     RDKit          3D

 14 15  0  0  0  0  0  0  0  0999 V2000
  -28.2740   -7.4360  -31.2570 C   0  0  0  0  0  0  0  0  0  0  0  0
  -27.7610   -6.4000  -31.9840 N   0  0  0  0  0  0  0  0  0  0  0  0
  -28.1980   -8.7940  -31.7860 N   0  0  0  0  0  0  0  0  0  0  0  0
  -27.9840   -5.2590  -31.2980 C   0  0  0  0  0  0  0  0  0  0  0  0
  -28.6430   -5.5910  -30.1340 C   0  0  0  0  0  0  0  0  0  0  0  0
  -28.8140   -6.9180  -30.1230 N   0  0  0  0  0  0  0  0  0  0  0  0
  -28.9950   -4.5770  -29.2390 C   0  0  0  0  0  0  0  0  0  0  0  0
  -28.7040   -3.2970  -29.4890 N   0  0  0  0  0  0  0  0  0  0  0  0
  -28.0630   -2.9350  -30.6110 C   0  0  0  0  0  0  0  0  0  0  0  0
  -27.7080   -3.9210  -31.5050 C   0  0  0  0  0  0  0  0  0  0  0  0
  -28.4130   -9.8360  -31.0580 C   0  0  0  0  0  0  0  0  0  0  0  0
  -28.8400   -9.9270  -29.8830 O   0  0  0  0  0  0  0  0  0  0  0  0
  -28.1500  -11.2270  -31.6680 C   0  0  0  0  0  0  0  0  0  0  0  0
  -29.0950  -12.2380  -31.1250 C   0  0  0  0  0  0  0  0  0  0  0  0
  1  2  2  0
  1  3  1  0
  1  6  1  0
  2  4  1  0
  3 11  1  0
  4 10  1  0
  4  5  2  0
  5  6  1  0
  5  7  1  0
  7  8  2  0
  8  9  1  0
  9 10  2  0
 11 13  1  0
 11 12  2  0
 13 14  1  0
M  END
>  <name>  (769) 
Car Nac Nd0 Car Car Nd0 Car Nac Car Car Cs2 .=O Cs3 Cs3

>  <indices>  (769) 
[0, 1, 2]

>  <tasks>  (769) 
probe_placing close_aromatic_ring close_aromatic_ring close_aromatic_ring ring_built fix_Car close_aromatic_ring close_aromatic_ring close_aromatic_ring build_to_Nd0 build_DB_to_Cs2 build_SB_to_Cs2

>  <prot_clashes>  (769) 
2

>  <NBS phar>  (769) 
0.24000000000000005

>  <NBS_non-phar>  (769) 
0.6091995239257812

>  <NBS>  (769) 
0.8491995239257812

>  <source_stage>  (769) 
scored

>  <source_iter>  (769) 
11

>  <source_parent_mol>  (769) 
1

>  <source_scenario>  (769) 
1 2 4 0 2 8 0 0 1 0 1

>  <source_rank_in_scored_call>  (769) 
36

>  <source_current_task>  (769) 
no_task

>  <scenario>  (769) 
1 2 4 0 2 8 0 0 1 0

>  <protected_ring_attachments>  (769) 
0,5,4,6|5,4,6;1,3,4,6|3,4,6;3,1,0,2|1,0,2;4,5,0,2|5,0,2

>  <current_task>  (769) 
no_task

>  <rotatable_bond_torsions>  (769) 
1,0,2,10;0,2,10,12

$$$$

     RDKit          3D

 14 15  0  0  0  0  0  0  0  0999 V2000
  -28.4950   -7.4970  -31.4130 C   0  0  0  0  0  0  0  0  0  0  0  0
  -27.8720   -6.4530  -32.0350 N   0  0  0  0  0  0  0  0  0  0  0  0
  -28.4730   -8.8190  -32.0310 N   0  0  0  0  0  0  0  0  0  0  0  0
  -28.0640   -5.3470  -31.2830 C   0  0  0  0  0  0  0  0  0  0  0  0
  -28.8130   -5.7100  -30.1850 C   0  0  0  0  0  0  0  0  0  0  0  0
  -29.0680   -7.0210  -30.2780 N   0  0  0  0  0  0  0  0  0  0  0  0
  -29.1540   -4.7360  -29.2420 C   0  0  0  0  0  0  0  0  0  0  0  0
  -28.7670   -3.4650  -29.3840 N   0  0  0  0  0  0  0  0  0  0  0  0
  -28.0370   -3.0730  -30.4400 C   0  0  0  0  0  0  0  0  0  0  0  0
  -27.6910   -4.0200  -31.3800 C   0  0  0  0  0  0  0  0  0  0  0  0
  -28.7970   -9.8910  -31.3910 C   0  0  0  0  0  0  0  0  0  0  0  0
  -29.3010  -10.0310  -30.2520 O   0  0  0  0  0  0  0  0  0  0  0  0
  -28.5860  -11.2520  -32.0830 C   0  0  0  0  0  0  0  0  0  0  0  0
  -27.7430  -12.2260  -31.3080 C   0  0  0  0  0  0  0  0  0  0  0  0
  1  2  2  0
  1  3  1  0
  1  6  1  0
  2  4  1  0
  3 11  1  0
  4 10  1  0
  4  5  2  0
  5  6  1  0
  5  7  1  0
  7  8  2  0
  8  9  1  0
  9 10  2  0
 11 13  1  0
 11 12  2  0
 13 14  1  0
M  END
>  <name>  (770) 
Car Nac Nd0 Car Car Nd0 Car Nac Car Car Cs2 .=O Cs3 Cs3

>  <indices>  (770) 
[0, 1, 2]

>  <tasks>  (770) 
probe_placing close_aromatic_ring close_aromatic_ring close_aromatic_ring ring_built fix_Car close_aromatic_ring close_aromatic_ring close_aromatic_ring build_to_Nd0 build_DB_to_Cs2 build_SB_to_Cs2

>  <prot_clashes>  (770) 
1

>  <NBS phar>  (770) 
0.15999999999999998

>  <NBS_non-phar>  (770) 
0.6891625268118722

>  <NBS>  (770) 
0.8491625268118721

>  <source_stage>  (770) 
scored

>  <source_iter>  (770) 
11

>  <source_parent_mol>  (770) 
1

>  <source_scenario>  (770) 
1 2 4 0 2 8 0 0 1 0 1

>  <source_rank_in_scored_call>  (770) 
37

>  <source_current_task>  (770) 
no_task

>  <scenario>  (770) 
1 2 4 0 2 8 0 0 1 0

>  <protected_ring_attachments>  (770) 
0,5,4,6|5,4,6;1,3,4,6|3,4,6;3,1,0,2|1,0,2;4,5,0,2|5,0,2

>  <current_task>  (770) 
no_task

>  <rotatable_bond_torsions>  (770) 
1,0,2,10;0,2,10,12

$$$$

     RDKit          3D

 14 15  0  0  0  0  0  0  0  0999 V2000
  -28.4680   -7.4660  -31.3580 C   0  0  0  0  0  0  0  0  0  0  0  0
  -27.8410   -6.4320  -31.9930 N   0  0  0  0  0  0  0  0  0  0  0  0
  -28.4260   -8.8010  -31.9450 N   0  0  0  0  0  0  0  0  0  0  0  0
  -28.0540   -5.3100  -31.2700 C   0  0  0  0  0  0  0  0  0  0  0  0
  -28.8200   -5.6540  -30.1770 C   0  0  0  0  0  0  0  0  0  0  0  0
  -29.0650   -6.9680  -30.2440 N   0  0  0  0  0  0  0  0  0  0  0  0
  -29.1840   -4.6610  -29.2630 C   0  0  0  0  0  0  0  0  0  0  0  0
  -28.8040   -3.3910  -29.4280 N   0  0  0  0  0  0  0  0  0  0  0  0
  -28.0570   -3.0180  -30.4790 C   0  0  0  0  0  0  0  0  0  0  0  0
  -27.6880   -3.9840  -31.3910 C   0  0  0  0  0  0  0  0  0  0  0  0
  -28.7550   -9.8610  -31.2870 C   0  0  0  0  0  0  0  0  0  0  0  0
  -29.2780   -9.9780  -30.1540 O   0  0  0  0  0  0  0  0  0  0  0  0
  -28.5230  -11.2350  -31.9430 C   0  0  0  0  0  0  0  0  0  0  0  0
  -28.0580  -12.2720  -30.8860 C   0  0  0  0  0  0  0  0  0  0  0  0
  1  2  2  0
  1  3  1  0
  1  6  1  0
  2  4  1  0
  3 11  1  0
  4 10  1  0
  4  5  2  0
  5  6  1  0
  5  7  1  0
  7  8  2  0
  8  9  1  0
  9 10  2  0
 11 13  1  0
 11 12  2  0
 13 14  1  0
M  END
>  <name>  (771) 
Car Nac Nd0 Car Car Nd0 Car Nac Car Car Cs2 .=O Cs3 Cs3

>  <indices>  (771) 
[0, 1, 2]

>  <tasks>  (771) 
probe_placing close_aromatic_ring close_aromatic_ring close_aromatic_ring ring_built fix_Car close_aromatic_ring close_aromatic_ring close_aromatic_ring build_to_Nd0 build_DB_to_Cs2 build_SB_to_Cs2

>  <prot_clashes>  (771) 
1

>  <NBS phar>  (771) 
0.18

>  <NBS_non-phar>  (771) 
0.6668252944946289

>  <NBS>  (771) 
0.8468252944946288

>  <source_stage>  (771) 
scored

>  <source_iter>  (771) 
11

>  <source_parent_mol>  (771) 
1

>  <source_scenario>  (771) 
1 2 4 0 2 8 0 0 1 0 1

>  <source_rank_in_scored_call>  (771) 
38

>  <source_current_task>  (771) 
no_task

>  <scenario>  (771) 
1 2 4 0 2 8 0 0 1 0

>  <protected_ring_attachments>  (771) 
0,5,4,6|5,4,6;1,3,4,6|3,4,6;3,1,0,2|1,0,2;4,5,0,2|5,0,2

>  <current_task>  (771) 
no_task

>  <rotatable_bond_torsions>  (771) 
1,0,2,10;0,2,10,12

$$$$

     RDKit          3D

 14 15  0  0  0  0  0  0  0  0999 V2000
  -28.2870   -7.6920  -31.0910 C   0  0  0  0  0  0  0  0  0  0  0  0
  -27.6600   -6.8780  -31.9920 N   0  0  0  0  0  0  0  0  0  0  0  0
  -28.3150   -9.1320  -31.3210 N   0  0  0  0  0  0  0  0  0  0  0  0
  -27.8020   -5.6020  -31.5700 C   0  0  0  0  0  0  0  0  0  0  0  0
  -28.5260   -5.6260  -30.3970 C   0  0  0  0  0  0  0  0  0  0  0  0
  -28.8140   -6.9030  -30.1180 N   0  0  0  0  0  0  0  0  0  0  0  0
  -28.8140   -4.4200  -29.7520 C   0  0  0  0  0  0  0  0  0  0  0  0
  -28.4030   -3.2500  -30.2490 N   0  0  0  0  0  0  0  0  0  0  0  0
  -27.6960   -3.1870  -31.3880 C   0  0  0  0  0  0  0  0  0  0  0  0
  -27.4020   -4.3660  -32.0380 C   0  0  0  0  0  0  0  0  0  0  0  0
  -28.6440   -9.9760  -30.4020 C   0  0  0  0  0  0  0  0  0  0  0  0
  -29.1150   -9.7810  -29.2580 O   0  0  0  0  0  0  0  0  0  0  0  0
  -28.4860  -11.4800  -30.6960 C   0  0  0  0  0  0  0  0  0  0  0  0
  -28.4360  -11.6990  -32.1590 C   0  0  0  0  0  0  0  0  0  0  0  0
  1  2  2  0
  1  3  1  0
  1  6  1  0
  2  4  1  0
  3 11  1  0
  4 10  1  0
  4  5  2  0
  5  6  1  0
  5  7  1  0
  7  8  2  0
  8  9  1  0
  9 10  2  0
 11 13  1  0
 11 12  2  0
 13 14  1  0
M  END
>  <name>  (772) 
Car Nac Nd0 Car Car Nd0 Car Nac Car Car Cs2 .=O Cs3 Cs3

>  <indices>  (772) 
[0, 1, 2]

>  <tasks>  (772) 
probe_placing close_aromatic_ring close_aromatic_ring close_aromatic_ring ring_built fix_Car close_aromatic_ring close_aromatic_ring close_aromatic_ring build_to_Nd0 build_DB_to_Cs2 build_SB_to_Cs2

>  <prot_clashes>  (772) 
2

>  <NBS phar>  (772) 
0.26000000000000006

>  <NBS_non-phar>  (772) 
0.5617092677525112

>  <NBS>  (772) 
0.8217092677525113

>  <source_stage>  (772) 
scored

>  <source_iter>  (772) 
11

>  <source_parent_mol>  (772) 
1

>  <source_scenario>  (772) 
1 2 4 0 2 8 0 0 1 0 1

>  <source_rank_in_scored_call>  (772) 
46

>  <source_current_task>  (772) 
no_task

>  <scenario>  (772) 
1 2 4 0 2 8 0 0 1 0

>  <protected_ring_attachments>  (772) 
0,5,4,6|5,4,6;1,3,4,6|3,4,6;3,1,0,2|1,0,2;4,5,0,2|5,0,2

>  <current_task>  (772) 
no_task

>  <rotatable_bond_torsions>  (772) 
1,0,2,10;0,2,10,12

$$$$

     RDKit          3D

 14 15  0  0  0  0  0  0  0  0999 V2000
  -28.5720   -7.4970  -31.3790 C   0  0  0  0  0  0  0  0  0  0  0  0
  -27.9020   -6.6670  -32.2330 N   0  0  0  0  0  0  0  0  0  0  0  0
  -28.8010   -8.8860  -31.7590 N   0  0  0  0  0  0  0  0  0  0  0  0
  -27.8510   -5.4410  -31.6670 C   0  0  0  0  0  0  0  0  0  0  0  0
  -28.4960   -5.5120  -30.4500 C   0  0  0  0  0  0  0  0  0  0  0  0
  -28.9290   -6.7680  -30.2890 N   0  0  0  0  0  0  0  0  0  0  0  0
  -28.5840   -4.3640  -29.6590 C   0  0  0  0  0  0  0  0  0  0  0  0
  -28.0560   -3.2030  -30.0580 N   0  0  0  0  0  0  0  0  0  0  0  0
  -27.4200   -3.0940  -31.2350 C   0  0  0  0  0  0  0  0  0  0  0  0
  -27.3240   -4.2170  -32.0290 C   0  0  0  0  0  0  0  0  0  0  0  0
  -29.1790   -9.7850  -30.9140 C   0  0  0  0  0  0  0  0  0  0  0  0
  -29.5480   -9.6680  -29.7220 O   0  0  0  0  0  0  0  0  0  0  0  0
  -29.2370  -11.2530  -31.3790 C   0  0  0  0  0  0  0  0  0  0  0  0
  -27.8340  -11.6930  -31.8640 C   0  0  0  0  0  0  0  0  0  0  0  0
  1  2  2  0
  1  3  1  0
  1  6  1  0
  2  4  1  0
  3 11  1  0
  4 10  1  0
  4  5  2  0
  5  6  1  0
  5  7  1  0
  7  8  2  0
  8  9  1  0
  9 10  2  0
 11 13  1  0
 11 12  2  0
 13 14  1  0
M  END
>  <name>  (773) 
Car Nac Nd0 Car Car Nd0 Car Nac Car Car Cs2 .=O Cs3 Cs3

>  <indices>  (773) 
[0, 1, 2]

>  <tasks>  (773) 
probe_placing close_aromatic_ring close_aromatic_ring close_aromatic_ring ring_built fix_Car close_aromatic_ring close_aromatic_ring close_aromatic_ring build_to_Nd0 build_DB_to_Cs2 build_SB_to_Cs2

>  <prot_clashes>  (773) 
3

>  <NBS phar>  (773) 
0.15999999999999998

>  <NBS_non-phar>  (773) 
0.6566492489406041

>  <NBS>  (773) 
0.8166492489406041

>  <source_stage>  (773) 
scored

>  <source_iter>  (773) 
11

>  <source_parent_mol>  (773) 
1

>  <source_scenario>  (773) 
1 2 4 0 2 8 0 0 1 0 1

>  <source_rank_in_scored_call>  (773) 
51

>  <source_current_task>  (773) 
no_task

>  <scenario>  (773) 
1 2 4 0 2 8 0 0 1 0

>  <protected_ring_attachments>  (773) 
0,5,4,6|5,4,6;1,3,4,6|3,4,6;3,1,0,2|1,0,2;4,5,0,2|5,0,2

>  <current_task>  (773) 
no_task

>  <rotatable_bond_torsions>  (773) 
1,0,2,10;0,2,10,12

$$$$

     RDKit          3D

 14 15  0  0  0  0  0  0  0  0999 V2000
  -28.5490   -7.4970  -31.3760 C   0  0  0  0  0  0  0  0  0  0  0  0
  -27.8670   -6.6610  -32.2150 N   0  0  0  0  0  0  0  0  0  0  0  0
  -28.7590   -8.8880  -31.7610 N   0  0  0  0  0  0  0  0  0  0  0  0
  -27.8380   -5.4350  -31.6490 C   0  0  0  0  0  0  0  0  0  0  0  0
  -28.5090   -5.5120  -30.4470 C   0  0  0  0  0  0  0  0  0  0  0  0
  -28.9370   -6.7710  -30.2950 N   0  0  0  0  0  0  0  0  0  0  0  0
  -28.6240   -4.3640  -29.6580 C   0  0  0  0  0  0  0  0  0  0  0  0
  -28.0970   -3.1990  -30.0450 N   0  0  0  0  0  0  0  0  0  0  0  0
  -27.4360   -3.0850  -31.2080 C   0  0  0  0  0  0  0  0  0  0  0  0
  -27.3130   -4.2070  -31.9990 C   0  0  0  0  0  0  0  0  0  0  0  0
  -29.1480   -9.7890  -30.9250 C   0  0  0  0  0  0  0  0  0  0  0  0
  -29.5450   -9.6760  -29.7420 O   0  0  0  0  0  0  0  0  0  0  0  0
  -29.1840  -11.2580  -31.3900 C   0  0  0  0  0  0  0  0  0  0  0  0
  -27.7580  -11.7860  -31.7680 C   0  0  0  0  0  0  0  0  0  0  0  0
  1  2  2  0
  1  3  1  0
  1  6  1  0
  2  4  1  0
  3 11  1  0
  4 10  1  0
  4  5  2  0
  5  6  1  0
  5  7  1  0
  7  8  2  0
  8  9  1  0
  9 10  2  0
 11 13  1  0
 11 12  2  0
 13 14  1  0
M  END
>  <name>  (774) 
Car Nac Nd0 Car Car Nd0 Car Nac Car Car Cs2 .=O Cs3 Cs3

>  <indices>  (774) 
[0, 1, 2]

>  <tasks>  (774) 
probe_placing close_aromatic_ring close_aromatic_ring close_aromatic_ring ring_built fix_Car close_aromatic_ring close_aromatic_ring close_aromatic_ring build_to_Nd0 build_DB_to_Cs2 build_SB_to_Cs2

>  <prot_clashes>  (774) 
3

>  <NBS phar>  (774) 
0.15999999999999998

>  <NBS_non-phar>  (774) 
0.6011030333382743

>  <NBS>  (774) 
0.7611030333382742

>  <source_stage>  (774) 
scored

>  <source_iter>  (774) 
11

>  <source_parent_mol>  (774) 
1

>  <source_scenario>  (774) 
1 2 4 0 2 8 0 0 1 0 1

>  <source_rank_in_scored_call>  (774) 
63

>  <source_current_task>  (774) 
no_task

>  <scenario>  (774) 
1 2 4 0 2 8 0 0 1 0

>  <protected_ring_attachments>  (774) 
0,5,4,6|5,4,6;1,3,4,6|3,4,6;3,1,0,2|1,0,2;4,5,0,2|5,0,2

>  <current_task>  (774) 
no_task

>  <rotatable_bond_torsions>  (774) 
1,0,2,10;0,2,10,12

$$$$

     RDKit          3D

 14 15  0  0  0  0  0  0  0  0999 V2000
  -28.3030   -7.4870  -31.5160 C   0  0  0  0  0  0  0  0  0  0  0  0
  -27.6690   -6.5340  -32.2620 N   0  0  0  0  0  0  0  0  0  0  0  0
  -28.3440   -8.8650  -31.9940 N   0  0  0  0  0  0  0  0  0  0  0  0
  -27.8000   -5.3510  -31.6240 C   0  0  0  0  0  0  0  0  0  0  0  0
  -28.5230   -5.5730  -30.4720 C   0  0  0  0  0  0  0  0  0  0  0  0
  -28.8230   -6.8760  -30.4200 N   0  0  0  0  0  0  0  0  0  0  0  0
  -28.8010   -4.4960  -29.6260 C   0  0  0  0  0  0  0  0  0  0  0  0
  -28.3790   -3.2600  -29.9110 N   0  0  0  0  0  0  0  0  0  0  0  0
  -27.6720   -3.0050  -31.0230 C   0  0  0  0  0  0  0  0  0  0  0  0
  -27.3880   -4.0560  -31.8690 C   0  0  0  0  0  0  0  0  0  0  0  0
  -28.6810   -9.8530  -31.2370 C   0  0  0  0  0  0  0  0  0  0  0  0
  -29.1510   -9.8570  -30.0750 O   0  0  0  0  0  0  0  0  0  0  0  0
  -28.5370  -11.2850  -31.7890 C   0  0  0  0  0  0  0  0  0  0  0  0
  -29.5950   -4.7320  -28.3650 C   0  0  0  0  0  0  0  0  0  0  0  0
  1  2  2  0
  1  3  1  0
  1  6  1  0
  2  4  1  0
  3 11  1  0
  4 10  1  0
  4  5  2  0
  5  6  1  0
  5  7  1  0
  7  8  2  0
  7 14  1  0
  8  9  1  0
  9 10  2  0
 11 13  1  0
 11 12  2  0
M  END
>  <name>  (775) 
Car Nac Nd0 Car Car Nd0 Car Nac Car Car Cs2 .=O Cs3 Cs3

>  <indices>  (775) 
[0, 1, 2]

>  <tasks>  (775) 
probe_placing close_aromatic_ring close_aromatic_ring close_aromatic_ring ring_built fix_Car close_aromatic_ring close_aromatic_ring close_aromatic_ring build_to_Nd0 build_DB_to_Cs2 build_SB_to_Cs2

>  <prot_clashes>  (775) 
4

>  <NBS phar>  (775) 
0.15999999999999998

>  <NBS_non-phar>  (775) 
0.5687110424041748

>  <NBS>  (775) 
0.7287110424041747

>  <source_stage>  (775) 
scored

>  <source_iter>  (775) 
11

>  <source_parent_mol>  (775) 
1

>  <source_scenario>  (775) 
1 2 4 0 2 8 0 0 1 0 1

>  <source_rank_in_scored_call>  (775) 
71

>  <source_current_task>  (775) 
no_task

>  <scenario>  (775) 
1 2 4 0 2 8 0 0 1 0

>  <protected_ring_attachments>  (775) 
0,5,4,6|5,4,6;1,3,4,6|3,4,6;3,1,0,2|1,0,2;4,5,0,2|5,0,2

>  <current_task>  (775) 
no_task

>  <rotatable_bond_torsions>  (775) 
1,0,2,10;0,2,10,12

$$$$

     RDKit          3D

 14 15  0  0  0  0  0  0  0  0999 V2000
  -28.6300   -7.4960  -31.3970 C   0  0  0  0  0  0  0  0  0  0  0  0
  -28.0190   -6.5720  -32.1950 N   0  0  0  0  0  0  0  0  0  0  0  0
  -28.7990   -8.8630  -31.8770 N   0  0  0  0  0  0  0  0  0  0  0  0
  -28.0170   -5.3910  -31.5390 C   0  0  0  0  0  0  0  0  0  0  0  0
  -28.6340   -5.5860  -30.3210 C   0  0  0  0  0  0  0  0  0  0  0  0
  -29.0030   -6.8700  -30.2490 N   0  0  0  0  0  0  0  0  0  0  0  0
  -28.7630   -4.5060  -29.4440 C   0  0  0  0  0  0  0  0  0  0  0  0
  -28.3000   -3.2930  -29.7620 N   0  0  0  0  0  0  0  0  0  0  0  0
  -27.6930   -3.0650  -30.9370 C   0  0  0  0  0  0  0  0  0  0  0  0
  -27.5570   -4.1180  -31.8140 C   0  0  0  0  0  0  0  0  0  0  0  0
  -29.1160   -9.8400  -31.0970 C   0  0  0  0  0  0  0  0  0  0  0  0
  -29.4680   -9.8320  -29.8950 O   0  0  0  0  0  0  0  0  0  0  0  0
  -29.1110  -11.2700  -31.6710 C   0  0  0  0  0  0  0  0  0  0  0  0
  -27.7090  -11.9590  -31.7080 C   0  0  0  0  0  0  0  0  0  0  0  0
  1  2  2  0
  1  3  1  0
  1  6  1  0
  2  4  1  0
  3 11  1  0
  4 10  1  0
  4  5  2  0
  5  6  1  0
  5  7  1  0
  7  8  2  0
  8  9  1  0
  9 10  2  0
 11 13  1  0
 11 12  2  0
 13 14  1  0
M  END
>  <name>  (776) 
Car Nac Nd0 Car Car Nd0 Car Nac Car Car Cs2 .=O Cs3 Cs3

>  <indices>  (776) 
[0, 1, 2]

>  <tasks>  (776) 
probe_placing close_aromatic_ring close_aromatic_ring close_aromatic_ring ring_built fix_Car close_aromatic_ring close_aromatic_ring close_aromatic_ring build_to_Nd0 build_DB_to_Cs2 build_SB_to_Cs2

>  <prot_clashes>  (776) 
2

>  <NBS phar>  (776) 
0.12

>  <NBS_non-phar>  (776) 
0.5988024302891323

>  <NBS>  (776) 
0.7188024302891323

>  <source_stage>  (776) 
scored

>  <source_iter>  (776) 
11

>  <source_parent_mol>  (776) 
1

>  <source_scenario>  (776) 
1 2 4 0 2 8 0 0 1 0 1

>  <source_rank_in_scored_call>  (776) 
76

>  <source_current_task>  (776) 
no_task

>  <scenario>  (776) 
1 2 4 0 2 8 0 0 1 0

>  <protected_ring_attachments>  (776) 
0,5,4,6|5,4,6;1,3,4,6|3,4,6;3,1,0,2|1,0,2;4,5,0,2|5,0,2

>  <current_task>  (776) 
no_task

>  <rotatable_bond_torsions>  (776) 
1,0,2,10;0,2,10,12

$$$$

     RDKit          3D

 17 19  0  0  0  0  0  0  0  0999 V2000
  -28.5310   -7.6020  -31.2370 C   0  0  0  0  0  0  0  0  0  0  0  0
  -27.8290   -6.8280  -32.1140 N   0  0  0  0  0  0  0  0  0  0  0  0
  -28.7100   -9.0230  -31.5140 N   0  0  0  0  0  0  0  0  0  0  0  0
  -27.8390   -5.5590  -31.6490 C   0  0  0  0  0  0  0  0  0  0  0  0
  -28.5550   -5.5480  -30.4710 C   0  0  0  0  0  0  0  0  0  0  0  0
  -28.9710   -6.7970  -30.2340 N   0  0  0  0  0  0  0  0  0  0  0  0
  -28.7140   -4.3430  -29.7840 C   0  0  0  0  0  0  0  0  0  0  0  0
  -28.1870   -3.2040  -30.2450 N   0  0  0  0  0  0  0  0  0  0  0  0
  -27.4820   -3.1740  -31.3860 C   0  0  0  0  0  0  0  0  0  0  0  0
  -27.3150   -4.3550  -32.0780 C   0  0  0  0  0  0  0  0  0  0  0  0
  -29.1210   -9.8590  -30.6210 C   0  0  0  0  0  0  0  0  0  0  0  0
  -29.5630   -9.6580  -29.4670 O   0  0  0  0  0  0  0  0  0  0  0  0
  -29.0460  -11.3840  -31.0280 C   0  0  0  0  0  0  0  0  0  0  0  0
  -28.1020  -11.7090  -31.8560 O   0  0  0  0  0  0  0  0  0  0  0  0
  -28.1040  -13.0090  -32.0200 C   0  0  0  0  0  0  0  0  0  0  0  0
  -29.7220  -12.4730  -30.6060 N   0  0  0  0  0  0  0  0  0  0  0  0
  -29.1310  -13.5250  -31.2320 C   0  0  0  0  0  0  0  0  0  0  0  0
  1  2  2  0
  1  3  1  0
  1  6  1  0
  2  4  1  0
  3 11  1  0
  4 10  2  0
  4  5  1  0
  5  6  1  0
  5  7  2  0
  7  8  1  0
  8  9  2  0
  9 10  1  0
 11 13  1  0
 11 12  2  0
 13 14  1  0
 13 16  2  0
 14 15  1  0
 15 17  2  0
 16 17  1  0
M  END
>  <name>  (777) 
Car Nac Nd0 Car Car Nd0 Car Nac Car Car Cs2 .=O Car O_a Car Nac Car

>  <indices>  (777) 
[0, 1, 2]

>  <tasks>  (777) 
probe_placing close_aromatic_ring close_aromatic_ring close_aromatic_ring ring_built fix_Car close_aromatic_ring close_aromatic_ring close_aromatic_ring build_to_Nd0 build_DB_to_Cs2 build_SB_to_Cs2 close_aromatic_ring close_aromatic_ring close_aromatic_ring

>  <prot_clashes>  (777) 
2

>  <NBS phar>  (777) 
0.13999999999999999

>  <NBS_non-phar>  (777) 
0.5272439507877126

>  <NBS>  (777) 
0.6672439507877126

>  <source_stage>  (777) 
scored

>  <source_iter>  (777) 
14

>  <source_parent_mol>  (777) 
0

>  <source_scenario>  (777) 
1 2 4 0 2 8 0 0 1 0 2 5 0 0

>  <source_rank_in_scored_call>  (777) 
0

>  <source_current_task>  (777) 
close_aromatic_ring

>  <scenario>  (777) 
1 2 4 0 2 8 0 0 1 0 2 5 0

>  <protected_ring_attachments>  (777) 
0,5,4,6|5,4,6;1,3,4,6|3,4,6;3,1,0,2|1,0,2;4,5,0,2|5,0,2

>  <current_task>  (777) 
no_task

>  <rotatable_bond_torsions>  (777) 
1,0,2,10;0,2,10,12;2,10,12,13;10,12,13,14

$$$$

     RDKit          3D

 18 20  0  0  0  0  0  0  0  0999 V2000
  -28.5210   -7.6280  -31.2530 C   0  0  0  0  0  0  0  0  0  0  0  0
  -27.8160   -6.8520  -32.1260 N   0  0  0  0  0  0  0  0  0  0  0  0
  -28.6990   -9.0490  -31.5340 N   0  0  0  0  0  0  0  0  0  0  0  0
  -27.8280   -5.5840  -31.6580 C   0  0  0  0  0  0  0  0  0  0  0  0
  -28.5480   -5.5760  -30.4830 C   0  0  0  0  0  0  0  0  0  0  0  0
  -28.9650   -6.8260  -30.2500 N   0  0  0  0  0  0  0  0  0  0  0  0
  -28.7100   -4.3730  -29.7930 C   0  0  0  0  0  0  0  0  0  0  0  0
  -28.1820   -3.2320  -30.2500 N   0  0  0  0  0  0  0  0  0  0  0  0
  -27.4730   -3.2000  -31.3880 C   0  0  0  0  0  0  0  0  0  0  0  0
  -27.3030   -4.3790  -32.0820 C   0  0  0  0  0  0  0  0  0  0  0  0
  -29.1130   -9.8870  -30.6450 C   0  0  0  0  0  0  0  0  0  0  0  0
  -29.5590   -9.6890  -29.4920 O   0  0  0  0  0  0  0  0  0  0  0  0
  -29.0360  -11.4110  -31.0550 C   0  0  0  0  0  0  0  0  0  0  0  0
  -28.0890  -11.7340  -31.8810 O   0  0  0  0  0  0  0  0  0  0  0  0
  -28.0900  -13.0330  -32.0480 C   0  0  0  0  0  0  0  0  0  0  0  0
  -29.7130  -12.5010  -30.6380 N   0  0  0  0  0  0  0  0  0  0  0  0
  -29.1200  -13.5510  -31.2650 C   0  0  0  0  0  0  0  0  0  0  0  0
  -29.4980   -4.3590  -28.5060 C   0  0  0  0  0  0  0  0  0  0  0  0
  1  2  2  0
  1  3  1  0
  1  6  1  0
  2  4  1  0
  3 11  1  0
  4 10  2  0
  4  5  1  0
  5  6  1  0
  5  7  2  0
  7  8  1  0
  7 18  1  0
  8  9  2  0
  9 10  1  0
 11 13  1  0
 11 12  2  0
 13 14  1  0
 13 16  2  0
 14 15  1  0
 15 17  2  0
 16 17  1  0
M  END
>  <name>  (778) 
Car Nac Nd0 Car Car Nd0 Car Nac Car Car Cs2 .=O Car O_a Car Nac Car Cs3

>  <indices>  (778) 
[0, 1, 2]

>  <tasks>  (778) 
probe_placing close_aromatic_ring close_aromatic_ring close_aromatic_ring ring_built fix_Car close_aromatic_ring close_aromatic_ring close_aromatic_ring build_to_Nd0 build_DB_to_Cs2 build_SB_to_Cs2 close_aromatic_ring close_aromatic_ring close_aromatic_ring close_aromatic_ring

>  <prot_clashes>  (778) 
4

>  <NBS phar>  (778) 
0.18

>  <NBS_non-phar>  (778) 
0.5346948835584853

>  <NBS>  (778) 
0.7146948835584852

>  <source_stage>  (778) 
scored

>  <source_iter>  (778) 
15

>  <source_parent_mol>  (778) 
0

>  <source_scenario>  (778) 
1 2 4 0 2 8 0 0 1 0 2 5 0 0 0

>  <source_rank_in_scored_call>  (778) 
9

>  <source_current_task>  (778) 
no_task

>  <scenario>  (778) 
1 2 4 0 2 8 0 0 1 0 2 5 0 0

>  <protected_ring_attachments>  (778) 
0,5,4,6|5,4,6;1,3,4,6|3,4,6;3,1,0,2|1,0,2;4,5,0,2|5,0,2

>  <current_task>  (778) 
no_task

>  <rotatable_bond_torsions>  (778) 
1,0,2,10;0,2,10,12;2,10,12,13

$$$$

     RDKit          3D

 17 19  0  0  0  0  0  0  0  0999 V2000
  -28.4170   -7.4620  -31.1750 C   0  0  0  0  0  0  0  0  0  0  0  0
  -27.8490   -6.5640  -32.0340 N   0  0  0  0  0  0  0  0  0  0  0  0
  -28.5180   -8.8640  -31.5620 N   0  0  0  0  0  0  0  0  0  0  0  0
  -27.9080   -5.3440  -31.4580 C   0  0  0  0  0  0  0  0  0  0  0  0
  -28.5190   -5.4860  -30.2310 C   0  0  0  0  0  0  0  0  0  0  0  0
  -28.8240   -6.7800  -30.0730 N   0  0  0  0  0  0  0  0  0  0  0  0
  -28.7020   -4.3580  -29.4300 C   0  0  0  0  0  0  0  0  0  0  0  0
  -28.2990   -3.1480  -29.8270 N   0  0  0  0  0  0  0  0  0  0  0  0
  -27.6990   -2.9680  -31.0130 C   0  0  0  0  0  0  0  0  0  0  0  0
  -27.5080   -4.0720  -31.8200 C   0  0  0  0  0  0  0  0  0  0  0  0
  -28.7910   -9.8000  -30.7200 C   0  0  0  0  0  0  0  0  0  0  0  0
  -29.1440   -9.7300  -29.5190 O   0  0  0  0  0  0  0  0  0  0  0  0
  -28.6680  -11.2320  -31.2410 C   0  0  0  0  0  0  0  0  0  0  0  0
  -29.0140  -12.3190  -30.5990 O   0  0  0  0  0  0  0  0  0  0  0  0
  -28.8960  -13.3850  -31.3790 C   0  0  0  0  0  0  0  0  0  0  0  0
  -28.3070  -11.5810  -32.4940 N   0  0  0  0  0  0  0  0  0  0  0  0
  -28.4400  -12.9330  -32.6090 C   0  0  0  0  0  0  0  0  0  0  0  0
  1  2  2  0
  1  3  1  0
  1  6  1  0
  2  4  1  0
  3 11  1  0
  4 10  2  0
  4  5  1  0
  5  6  1  0
  5  7  2  0
  7  8  1  0
  8  9  2  0
  9 10  1  0
 11 13  1  0
 11 12  2  0
 13 16  2  0
 13 14  1  0
 14 15  1  0
 15 17  2  0
 16 17  1  0
M  END
>  <name>  (779) 
Car Nac Nd0 Car Car Nd0 Car Nac Car Car Cs2 .=O Car O_a Car Nac Car

>  <indices>  (779) 
[0, 1, 2]

>  <tasks>  (779) 
probe_placing close_aromatic_ring close_aromatic_ring close_aromatic_ring ring_built fix_Car close_aromatic_ring close_aromatic_ring close_aromatic_ring build_to_Nd0 build_DB_to_Cs2 build_SB_to_Cs2 close_aromatic_ring close_aromatic_ring close_aromatic_ring

>  <prot_clashes>  (779) 
2

>  <NBS phar>  (779) 
0.26000000000000006

>  <NBS_non-phar>  (779) 
0.4571812293108772

>  <NBS>  (779) 
0.7171812293108772

>  <source_stage>  (779) 
scored

>  <source_iter>  (779) 
14

>  <source_parent_mol>  (779) 
0

>  <source_scenario>  (779) 
1 2 4 0 2 8 0 0 1 0 2 6 0 0

>  <source_rank_in_scored_call>  (779) 
0

>  <source_current_task>  (779) 
close_aromatic_ring

>  <scenario>  (779) 
1 2 4 0 2 8 0 0 1 0 2 6 0

>  <protected_ring_attachments>  (779) 
0,5,4,6|5,4,6;1,3,4,6|3,4,6;3,1,0,2|1,0,2;4,5,0,2|5,0,2

>  <current_task>  (779) 
no_task

>  <rotatable_bond_torsions>  (779) 
1,0,2,10;0,2,10,12;2,10,12,13;10,12,13,14

$$$$

     RDKit          3D

 17 19  0  0  0  0  0  0  0  0999 V2000
  -28.4370   -7.5710  -31.3610 C   0  0  0  0  0  0  0  0  0  0  0  0
  -27.7580   -6.7450  -32.2100 N   0  0  0  0  0  0  0  0  0  0  0  0
  -28.5740   -8.9840  -31.6910 N   0  0  0  0  0  0  0  0  0  0  0  0
  -27.8020   -5.4950  -31.6980 C   0  0  0  0  0  0  0  0  0  0  0  0
  -28.5150   -5.5500  -30.5190 C   0  0  0  0  0  0  0  0  0  0  0  0
  -28.8970   -6.8190  -30.3290 N   0  0  0  0  0  0  0  0  0  0  0  0
  -28.7080   -4.3750  -29.7870 C   0  0  0  0  0  0  0  0  0  0  0  0
  -28.2140   -3.2060  -30.2040 N   0  0  0  0  0  0  0  0  0  0  0  0
  -27.5120   -3.1140  -31.3460 C   0  0  0  0  0  0  0  0  0  0  0  0
  -27.3130   -4.2620  -32.0820 C   0  0  0  0  0  0  0  0  0  0  0  0
  -28.9590   -9.8660  -30.8330 C   0  0  0  0  0  0  0  0  0  0  0  0
  -29.4050   -9.7210  -29.6710 O   0  0  0  0  0  0  0  0  0  0  0  0
  -28.8720  -11.2760  -31.2850 C   0  0  0  0  0  0  0  0  0  0  0  0
  -28.5710  -11.5590  -32.5140 O   0  0  0  0  0  0  0  0  0  0  0  0
  -28.4380  -12.8590  -32.6890 C   0  0  0  0  0  0  0  0  0  0  0  0
  -28.6670  -13.4610  -31.5070 N   0  0  0  0  0  0  0  0  0  0  0  0
  -28.9380  -12.4850  -30.6210 C   0  0  0  0  0  0  0  0  0  0  0  0
  1  2  2  0
  1  3  1  0
  1  6  1  0
  2  4  1  0
  3 11  1  0
  4 10  2  0
  4  5  1  0
  5  6  1  0
  5  7  2  0
  7  8  1  0
  8  9  2  0
  9 10  1  0
 11 13  1  0
 11 12  2  0
 13 14  1  0
 13 17  2  0
 14 15  1  0
 15 16  2  0
 16 17  1  0
M  END
>  <name>  (780) 
Car Nac Nd0 Car Car Nd0 Car Nac Car Car Cs2 .=O Car O_a Car Nac Car

>  <indices>  (780) 
[0, 1, 2]

>  <tasks>  (780) 
probe_placing close_aromatic_ring close_aromatic_ring close_aromatic_ring ring_built fix_Car close_aromatic_ring close_aromatic_ring close_aromatic_ring build_to_Nd0 build_DB_to_Cs2 build_SB_to_Cs2 close_aromatic_ring close_aromatic_ring close_aromatic_ring

>  <prot_clashes>  (780) 
2

>  <NBS phar>  (780) 
0.22000000000000003

>  <NBS_non-phar>  (780) 
0.5264699599322151

>  <NBS>  (780) 
0.7464699599322151

>  <source_stage>  (780) 
scored

>  <source_iter>  (780) 
14

>  <source_parent_mol>  (780) 
0

>  <source_scenario>  (780) 
1 2 4 0 2 8 0 0 1 0 2 8 0 0

>  <source_rank_in_scored_call>  (780) 
0

>  <source_current_task>  (780) 
close_aromatic_ring

>  <scenario>  (780) 
1 2 4 0 2 8 0 0 1 0 2 8 0

>  <protected_ring_attachments>  (780) 
0,5,4,6|5,4,6;1,3,4,6|3,4,6;3,1,0,2|1,0,2;4,5,0,2|5,0,2

>  <current_task>  (780) 
no_task

>  <rotatable_bond_torsions>  (780) 
1,0,2,10;0,2,10,12;2,10,12,13;10,12,13,14;12,13,14,15

$$$$

     RDKit          3D

 12 13  0  0  0  0  0  0  0  0999 V2000
  -28.2820   -7.3660  -31.7110 C   0  0  0  0  0  0  0  0  0  0  0  0
  -27.7350   -6.3120  -32.3090 N   0  0  0  0  0  0  0  0  0  0  0  0
  -28.4390   -8.7600  -32.1380 N   0  0  0  0  0  0  0  0  0  0  0  0
  -27.9090   -5.1950  -31.5660 C   0  0  0  0  0  0  0  0  0  0  0  0
  -28.6050   -5.5830  -30.4450 C   0  0  0  0  0  0  0  0  0  0  0  0
  -28.8130   -6.9040  -30.5650 N   0  0  0  0  0  0  0  0  0  0  0  0
  -28.7720   -4.4720  -29.7180 N   0  0  0  0  0  0  0  0  0  0  0  0
  -28.2460   -3.4460  -30.2850 O   0  0  0  0  0  0  0  0  0  0  0  0
  -27.7120   -3.8400  -31.4080 C   0  0  0  0  0  0  0  0  0  0  0  0
  -28.6140   -9.7960  -31.2180 C   0  0  0  0  0  0  0  0  0  0  0  0
  -28.7980   -9.6920  -30.0150 O   0  0  0  0  0  0  0  0  0  0  0  0
  -28.6050  -11.2060  -31.7540 C   0  0  0  0  0  0  0  0  0  0  0  0
  1  2  2  0
  1  3  1  0
  1  6  1  0
  2  4  1  0
  3 10  1  0
  4  9  2  0
  4  5  1  0
  5  6  1  0
  5  7  2  0
  7  8  1  0
  8  9  1  0
 10 12  1  0
 10 11  2  0
M  END
>  <name>  (781) 
Car Nac Nd0 Car Car Nd0 Nac O_a Car Cs2 .=O Cs3

>  <indices>  (781) 
[0, 1, 2]

>  <tasks>  (781) 
probe_placing close_aromatic_ring close_aromatic_ring close_aromatic_ring ring_built fix_Car close_aromatic_ring close_aromatic_ring build_to_Nd0 build_DB_to_Cs2

>  <prot_clashes>  (781) 
1

>  <NBS phar>  (781) 
0.18

>  <NBS_non-phar>  (781) 
0.604921023050944

>  <NBS>  (781) 
0.784921023050944

>  <source_stage>  (781) 
scored

>  <source_iter>  (781) 
9

>  <source_parent_mol>  (781) 
0

>  <source_scenario>  (781) 
1 2 4 0 3 8 0 0 0

>  <source_rank_in_scored_call>  (781) 
2

>  <source_current_task>  (781) 
build_SB_to_Cs2

>  <scenario>  (781) 
1 2 4 0 3 8 0 0

>  <protected_ring_attachments>  (781) 
0,5,4,6|5,4,6;1,3,4,6|3,4,6;3,1,0,2|1,0,2;4,5,0,2|5,0,2

>  <current_task>  (781) 
no_task

>  <rotatable_bond_torsions>  (781) 
1,0,2,9;0,2,9,10

$$$$

     RDKit          3D

 13 14  0  0  0  0  0  0  0  0999 V2000
  -28.4310   -7.3770  -31.7040 C   0  0  0  0  0  0  0  0  0  0  0  0
  -27.8200   -6.3520  -32.2900 N   0  0  0  0  0  0  0  0  0  0  0  0
  -28.6480   -8.7620  -32.1350 N   0  0  0  0  0  0  0  0  0  0  0  0
  -27.9540   -5.2270  -31.5510 C   0  0  0  0  0  0  0  0  0  0  0  0
  -28.6920   -5.5790  -30.4450 C   0  0  0  0  0  0  0  0  0  0  0  0
  -28.9630   -6.8880  -30.5700 N   0  0  0  0  0  0  0  0  0  0  0  0
  -28.8200   -4.4600  -29.7220 N   0  0  0  0  0  0  0  0  0  0  0  0
  -28.2310   -3.4620  -30.2770 O   0  0  0  0  0  0  0  0  0  0  0  0
  -27.6940   -3.8830  -31.3880 C   0  0  0  0  0  0  0  0  0  0  0  0
  -28.8940   -9.7870  -31.2190 C   0  0  0  0  0  0  0  0  0  0  0  0
  -29.0980   -9.6730  -30.0200 O   0  0  0  0  0  0  0  0  0  0  0  0
  -28.9430  -11.1960  -31.7550 C   0  0  0  0  0  0  0  0  0  0  0  0
  -28.0080  -12.1560  -31.0490 C   0  0  0  0  0  0  0  0  0  0  0  0
  1  2  2  0
  1  3  1  0
  1  6  1  0
  2  4  1  0
  3 10  1  0
  4  9  2  0
  4  5  1  0
  5  6  1  0
  5  7  2  0
  7  8  1  0
  8  9  1  0
 10 12  1  0
 10 11  2  0
 12 13  1  0
M  END
>  <name>  (782) 
Car Nac Nd0 Car Car Nd0 Nac O_a Car Cs2 .=O Cs3 Cs3

>  <indices>  (782) 
[0, 1, 2]

>  <tasks>  (782) 
probe_placing close_aromatic_ring close_aromatic_ring close_aromatic_ring ring_built fix_Car close_aromatic_ring close_aromatic_ring build_to_Nd0 build_DB_to_Cs2 build_SB_to_Cs2

>  <prot_clashes>  (782) 
1

>  <NBS phar>  (782) 
0.12

>  <NBS_non-phar>  (782) 
0.662570073054387

>  <NBS>  (782) 
0.782570073054387

>  <source_stage>  (782) 
scored

>  <source_iter>  (782) 
10

>  <source_parent_mol>  (782) 
2

>  <source_scenario>  (782) 
1 2 4 0 3 8 0 0 0 2

>  <source_rank_in_scored_call>  (782) 
6

>  <source_current_task>  (782) 
no_task

>  <scenario>  (782) 
1 2 4 0 3 8 0 0 0

>  <protected_ring_attachments>  (782) 
0,5,4,6|5,4,6;1,3,4,6|3,4,6;3,1,0,2|1,0,2;4,5,0,2|5,0,2

>  <current_task>  (782) 
no_task

>  <rotatable_bond_torsions>  (782) 
1,0,2,9;0,2,9,11

$$$$

     RDKit          3D

 13 14  0  0  0  0  0  0  0  0999 V2000
  -28.1950   -7.3070  -31.4720 C   0  0  0  0  0  0  0  0  0  0  0  0
  -27.8720   -6.2120  -32.1540 N   0  0  0  0  0  0  0  0  0  0  0  0
  -28.2480   -8.7200  -31.8600 N   0  0  0  0  0  0  0  0  0  0  0  0
  -28.0630   -5.1040  -31.4020 C   0  0  0  0  0  0  0  0  0  0  0  0
  -28.5320   -5.5420  -30.1850 C   0  0  0  0  0  0  0  0  0  0  0  0
  -28.5980   -6.8810  -30.2620 N   0  0  0  0  0  0  0  0  0  0  0  0
  -28.7180   -4.4400  -29.4500 N   0  0  0  0  0  0  0  0  0  0  0  0
  -28.4080   -3.3740  -30.0980 O   0  0  0  0  0  0  0  0  0  0  0  0
  -28.0060   -3.7320  -31.2860 C   0  0  0  0  0  0  0  0  0  0  0  0
  -28.1590   -9.7460  -30.9160 C   0  0  0  0  0  0  0  0  0  0  0  0
  -28.1710   -9.6330  -29.7000 O   0  0  0  0  0  0  0  0  0  0  0  0
  -28.0640  -11.1580  -31.4370 C   0  0  0  0  0  0  0  0  0  0  0  0
  -29.2360  -12.0270  -31.0370 C   0  0  0  0  0  0  0  0  0  0  0  0
  1  2  2  0
  1  3  1  0
  1  6  1  0
  2  4  1  0
  3 10  1  0
  4  9  2  0
  4  5  1  0
  5  6  1  0
  5  7  2  0
  7  8  1  0
  8  9  1  0
 10 12  1  0
 10 11  2  0
 12 13  1  0
M  END
>  <name>  (783) 
Car Nac Nd0 Car Car Nd0 Nac O_a Car Cs2 .=O Cs3 Cs3

>  <indices>  (783) 
[0, 1, 2]

>  <tasks>  (783) 
probe_placing close_aromatic_ring close_aromatic_ring close_aromatic_ring ring_built fix_Car close_aromatic_ring close_aromatic_ring build_to_Nd0 build_DB_to_Cs2 build_SB_to_Cs2

>  <prot_clashes>  (783) 
1

>  <NBS phar>  (783) 
0.24000000000000005

>  <NBS_non-phar>  (783) 
0.5376183803264911

>  <NBS>  (783) 
0.7776183803264911

>  <source_stage>  (783) 
scored

>  <source_iter>  (783) 
10

>  <source_parent_mol>  (783) 
2

>  <source_scenario>  (783) 
1 2 4 0 3 8 0 0 0 2

>  <source_rank_in_scored_call>  (783) 
9

>  <source_current_task>  (783) 
no_task

>  <scenario>  (783) 
1 2 4 0 3 8 0 0 0

>  <protected_ring_attachments>  (783) 
0,5,4,6|5,4,6;1,3,4,6|3,4,6;3,1,0,2|1,0,2;4,5,0,2|5,0,2

>  <current_task>  (783) 
no_task

>  <rotatable_bond_torsions>  (783) 
1,0,2,9;0,2,9,11

$$$$

     RDKit          3D

 13 14  0  0  0  0  0  0  0  0999 V2000
  -28.2810   -7.3650  -31.7060 C   0  0  0  0  0  0  0  0  0  0  0  0
  -27.7310   -6.3100  -32.2990 N   0  0  0  0  0  0  0  0  0  0  0  0
  -28.4380   -8.7580  -32.1380 N   0  0  0  0  0  0  0  0  0  0  0  0
  -27.9060   -5.1950  -31.5520 C   0  0  0  0  0  0  0  0  0  0  0  0
  -28.6040   -5.5870  -30.4340 C   0  0  0  0  0  0  0  0  0  0  0  0
  -28.8130   -6.9070  -30.5590 N   0  0  0  0  0  0  0  0  0  0  0  0
  -28.7710   -4.4780  -29.7030 N   0  0  0  0  0  0  0  0  0  0  0  0
  -28.2430   -3.4510  -30.2650 O   0  0  0  0  0  0  0  0  0  0  0  0
  -27.7070   -3.8410  -31.3880 C   0  0  0  0  0  0  0  0  0  0  0  0
  -28.6160   -9.7970  -31.2220 C   0  0  0  0  0  0  0  0  0  0  0  0
  -28.8020   -9.6970  -30.0190 O   0  0  0  0  0  0  0  0  0  0  0  0
  -28.6080  -11.2050  -31.7640 C   0  0  0  0  0  0  0  0  0  0  0  0
  -28.1240  -12.2820  -30.8040 C   0  0  0  0  0  0  0  0  0  0  0  0
  1  2  2  0
  1  3  1  0
  1  6  1  0
  2  4  1  0
  3 10  1  0
  4  9  2  0
  4  5  1  0
  5  6  1  0
  5  7  2  0
  7  8  1  0
  8  9  1  0
 10 12  1  0
 10 11  2  0
 12 13  1  0
M  END
>  <name>  (784) 
Car Nac Nd0 Car Car Nd0 Nac O_a Car Cs2 .=O Cs3 Cs3

>  <indices>  (784) 
[0, 1, 2]

>  <tasks>  (784) 
probe_placing close_aromatic_ring close_aromatic_ring close_aromatic_ring ring_built fix_Car close_aromatic_ring close_aromatic_ring build_to_Nd0 build_DB_to_Cs2 build_SB_to_Cs2

>  <prot_clashes>  (784) 
1

>  <NBS phar>  (784) 
0.18

>  <NBS_non-phar>  (784) 
0.5908649884737455

>  <NBS>  (784) 
0.7708649884737455

>  <source_stage>  (784) 
scored

>  <source_iter>  (784) 
10

>  <source_parent_mol>  (784) 
2

>  <source_scenario>  (784) 
1 2 4 0 3 8 0 0 0 2

>  <source_rank_in_scored_call>  (784) 
11

>  <source_current_task>  (784) 
no_task

>  <scenario>  (784) 
1 2 4 0 3 8 0 0 0

>  <protected_ring_attachments>  (784) 
0,5,4,6|5,4,6;1,3,4,6|3,4,6;3,1,0,2|1,0,2;4,5,0,2|5,0,2

>  <current_task>  (784) 
no_task

>  <rotatable_bond_torsions>  (784) 
1,0,2,9;0,2,9,11

$$$$

     RDKit          3D

 13 14  0  0  0  0  0  0  0  0999 V2000
  -28.1510   -7.2960  -31.4480 C   0  0  0  0  0  0  0  0  0  0  0  0
  -27.8010   -6.2300  -32.1610 N   0  0  0  0  0  0  0  0  0  0  0  0
  -28.2130   -8.7210  -31.7870 N   0  0  0  0  0  0  0  0  0  0  0  0
  -27.9960   -5.0940  -31.4520 C   0  0  0  0  0  0  0  0  0  0  0  0
  -28.4960   -5.4830  -30.2320 C   0  0  0  0  0  0  0  0  0  0  0  0
  -28.5760   -6.8230  -30.2630 N   0  0  0  0  0  0  0  0  0  0  0  0
  -28.6850   -4.3530  -29.5400 N   0  0  0  0  0  0  0  0  0  0  0  0
  -28.3490   -3.3150  -30.2180 O   0  0  0  0  0  0  0  0  0  0  0  0
  -27.9250   -3.7190  -31.3840 C   0  0  0  0  0  0  0  0  0  0  0  0
  -28.1560   -9.7140  -30.8060 C   0  0  0  0  0  0  0  0  0  0  0  0
  -28.1930   -9.5580  -29.5950 O   0  0  0  0  0  0  0  0  0  0  0  0
  -28.0670  -11.1450  -31.2740 C   0  0  0  0  0  0  0  0  0  0  0  0
  -29.4730  -11.7440  -31.3680 C   0  0  0  0  0  0  0  0  0  0  0  0
  1  2  2  0
  1  3  1  0
  1  6  1  0
  2  4  1  0
  3 10  1  0
  4  9  2  0
  4  5  1  0
  5  6  1  0
  5  7  2  0
  7  8  1  0
  8  9  1  0
 10 12  1  0
 10 11  2  0
 12 13  1  0
M  END
>  <name>  (785) 
Car Nac Nd0 Car Car Nd0 Nac O_a Car Cs2 .=O Cs3 Cs3

>  <indices>  (785) 
[0, 1, 2]

>  <tasks>  (785) 
probe_placing close_aromatic_ring close_aromatic_ring close_aromatic_ring ring_built fix_Car close_aromatic_ring close_aromatic_ring build_to_Nd0 build_DB_to_Cs2 build_SB_to_Cs2

>  <prot_clashes>  (785) 
0

>  <NBS phar>  (785) 
0.24000000000000005

>  <NBS_non-phar>  (785) 
0.5304505641643817

>  <NBS>  (785) 
0.7704505641643817

>  <source_stage>  (785) 
scored

>  <source_iter>  (785) 
10

>  <source_parent_mol>  (785) 
2

>  <source_scenario>  (785) 
1 2 4 0 3 8 0 0 0 2

>  <source_rank_in_scored_call>  (785) 
12

>  <source_current_task>  (785) 
no_task

>  <scenario>  (785) 
1 2 4 0 3 8 0 0 0

>  <protected_ring_attachments>  (785) 
0,5,4,6|5,4,6;1,3,4,6|3,4,6;3,1,0,2|1,0,2;4,5,0,2|5,0,2

>  <current_task>  (785) 
no_task

>  <rotatable_bond_torsions>  (785) 
1,0,2,9;0,2,9,11

$$$$

     RDKit          3D

 13 14  0  0  0  0  0  0  0  0999 V2000
  -28.3170   -7.3660  -31.7060 C   0  0  0  0  0  0  0  0  0  0  0  0
  -27.7270   -6.3250  -32.2850 N   0  0  0  0  0  0  0  0  0  0  0  0
  -28.4870   -8.7570  -32.1360 N   0  0  0  0  0  0  0  0  0  0  0  0
  -27.9050   -5.2030  -31.5510 C   0  0  0  0  0  0  0  0  0  0  0  0
  -28.6500   -5.5740  -30.4550 C   0  0  0  0  0  0  0  0  0  0  0  0
  -28.8800   -6.8900  -30.5810 N   0  0  0  0  0  0  0  0  0  0  0  0
  -28.8200   -4.4580  -29.7370 N   0  0  0  0  0  0  0  0  0  0  0  0
  -28.2520   -3.4440  -30.2860 O   0  0  0  0  0  0  0  0  0  0  0  0
  -27.6860   -3.8520  -31.3880 C   0  0  0  0  0  0  0  0  0  0  0  0
  -28.7180   -9.7870  -31.2220 C   0  0  0  0  0  0  0  0  0  0  0  0
  -28.9430   -9.6770  -30.0260 O   0  0  0  0  0  0  0  0  0  0  0  0
  -28.7180  -11.1980  -31.7550 C   0  0  0  0  0  0  0  0  0  0  0  0
  -28.0640  -12.1430  -30.7130 C   0  0  0  0  0  0  0  0  0  0  0  0
  1  2  2  0
  1  3  1  0
  1  6  1  0
  2  4  1  0
  3 10  1  0
  4  9  2  0
  4  5  1  0
  5  6  1  0
  5  7  2  0
  7  8  1  0
  8  9  1  0
 10 12  1  0
 10 11  2  0
 12 13  1  0
M  END
>  <name>  (786) 
Car Nac Nd0 Car Car Nd0 Nac O_a Car Cs2 .=O Cs3 Cs3

>  <indices>  (786) 
[0, 1, 2]

>  <tasks>  (786) 
probe_placing close_aromatic_ring close_aromatic_ring close_aromatic_ring ring_built fix_Car close_aromatic_ring close_aromatic_ring build_to_Nd0 build_DB_to_Cs2 build_SB_to_Cs2

>  <prot_clashes>  (786) 
1

>  <NBS phar>  (786) 
0.15999999999999998

>  <NBS_non-phar>  (786) 
0.6046371093163123

>  <NBS>  (786) 
0.7646371093163122

>  <source_stage>  (786) 
scored

>  <source_iter>  (786) 
10

>  <source_parent_mol>  (786) 
2

>  <source_scenario>  (786) 
1 2 4 0 3 8 0 0 0 2

>  <source_rank_in_scored_call>  (786) 
15

>  <source_current_task>  (786) 
no_task

>  <scenario>  (786) 
1 2 4 0 3 8 0 0 0

>  <protected_ring_attachments>  (786) 
0,5,4,6|5,4,6;1,3,4,6|3,4,6;3,1,0,2|1,0,2;4,5,0,2|5,0,2

>  <current_task>  (786) 
no_task

>  <rotatable_bond_torsions>  (786) 
1,0,2,9;0,2,9,11

$$$$

     RDKit          3D

 13 14  0  0  0  0  0  0  0  0999 V2000
  -28.3830   -7.3380  -31.8070 C   0  0  0  0  0  0  0  0  0  0  0  0
  -27.7230   -6.4050  -32.4870 N   0  0  0  0  0  0  0  0  0  0  0  0
  -28.7270   -8.7260  -32.1330 N   0  0  0  0  0  0  0  0  0  0  0  0
  -27.7340   -5.2280  -31.8210 C   0  0  0  0  0  0  0  0  0  0  0  0
  -28.4420   -5.4480  -30.6630 C   0  0  0  0  0  0  0  0  0  0  0  0
  -28.8190   -6.7360  -30.6870 N   0  0  0  0  0  0  0  0  0  0  0  0
  -28.4470   -4.2780  -30.0120 N   0  0  0  0  0  0  0  0  0  0  0  0
  -27.8110   -3.3680  -30.6590 O   0  0  0  0  0  0  0  0  0  0  0  0
  -27.3630   -3.9020  -31.7620 C   0  0  0  0  0  0  0  0  0  0  0  0
  -29.0060   -9.6670  -31.1400 C   0  0  0  0  0  0  0  0  0  0  0  0
  -29.1420   -9.4600  -29.9440 O   0  0  0  0  0  0  0  0  0  0  0  0
  -29.1910  -11.0990  -31.5760 C   0  0  0  0  0  0  0  0  0  0  0  0
  -27.8680  -11.9150  -31.7520 C   0  0  0  0  0  0  0  0  0  0  0  0
  1  2  2  0
  1  3  1  0
  1  6  1  0
  2  4  1  0
  3 10  1  0
  4  9  2  0
  4  5  1  0
  5  6  1  0
  5  7  2  0
  7  8  1  0
  8  9  1  0
 10 12  1  0
 10 11  2  0
 12 13  1  0
M  END
>  <name>  (787) 
Car Nac Nd0 Car Car Nd0 Nac O_a Car Cs2 .=O Cs3 Cs3

>  <indices>  (787) 
[0, 1, 2]

>  <tasks>  (787) 
probe_placing close_aromatic_ring close_aromatic_ring close_aromatic_ring ring_built fix_Car close_aromatic_ring close_aromatic_ring build_to_Nd0 build_DB_to_Cs2 build_SB_to_Cs2

>  <prot_clashes>  (787) 
2

>  <NBS phar>  (787) 
0.12

>  <NBS_non-phar>  (787) 
0.5959024062523475

>  <NBS>  (787) 
0.7159024062523475

>  <source_stage>  (787) 
scored

>  <source_iter>  (787) 
10

>  <source_parent_mol>  (787) 
2

>  <source_scenario>  (787) 
1 2 4 0 3 8 0 0 0 2

>  <source_rank_in_scored_call>  (787) 
25

>  <source_current_task>  (787) 
no_task

>  <scenario>  (787) 
1 2 4 0 3 8 0 0 0

>  <protected_ring_attachments>  (787) 
0,5,4,6|5,4,6;1,3,4,6|3,4,6;3,1,0,2|1,0,2;4,5,0,2|5,0,2

>  <current_task>  (787) 
no_task

>  <rotatable_bond_torsions>  (787) 
1,0,2,9;0,2,9,11

$$$$

     RDKit          3D

 13 14  0  0  0  0  0  0  0  0999 V2000
  -28.3140   -7.3470  -31.6970 C   0  0  0  0  0  0  0  0  0  0  0  0
  -27.8650   -6.2580  -32.3130 N   0  0  0  0  0  0  0  0  0  0  0  0
  -28.4130   -8.7450  -32.1290 N   0  0  0  0  0  0  0  0  0  0  0  0
  -28.0620   -5.1590  -31.5500 C   0  0  0  0  0  0  0  0  0  0  0  0
  -28.6690   -5.5960  -30.3960 C   0  0  0  0  0  0  0  0  0  0  0  0
  -28.8060   -6.9260  -30.5180 N   0  0  0  0  0  0  0  0  0  0  0  0
  -28.8600   -4.5020  -29.6490 N   0  0  0  0  0  0  0  0  0  0  0  0
  -28.4280   -3.4420  -30.2340 O   0  0  0  0  0  0  0  0  0  0  0  0
  -27.9370   -3.7960  -31.3890 C   0  0  0  0  0  0  0  0  0  0  0  0
  -28.4740   -9.7960  -31.2110 C   0  0  0  0  0  0  0  0  0  0  0  0
  -28.5950   -9.7120  -29.9990 O   0  0  0  0  0  0  0  0  0  0  0  0
  -28.4120  -11.1990  -31.7620 C   0  0  0  0  0  0  0  0  0  0  0  0
  -29.2160  -12.1180  -30.9390 C   0  0  0  0  0  0  0  0  0  0  0  0
  1  2  2  0
  1  3  1  0
  1  6  1  0
  2  4  1  0
  3 10  1  0
  4  9  2  0
  4  5  1  0
  5  6  1  0
  5  7  2  0
  7  8  1  0
  8  9  1  0
 10 12  1  0
 10 11  2  0
 12 13  1  0
M  END
>  <name>  (788) 
Car Nac Nd0 Car Car Nd0 Nac O_a Car Cs2 .=O Cs3 Cs3

>  <indices>  (788) 
[0, 1, 2]

>  <tasks>  (788) 
probe_placing close_aromatic_ring close_aromatic_ring close_aromatic_ring ring_built fix_Car close_aromatic_ring close_aromatic_ring build_to_Nd0 build_DB_to_Cs2 build_SB_to_Cs2

>  <prot_clashes>  (788) 
1

>  <NBS phar>  (788) 
0.12

>  <NBS_non-phar>  (788) 
0.5843828641451322

>  <NBS>  (788) 
0.7043828641451322

>  <source_stage>  (788) 
scored

>  <source_iter>  (788) 
10

>  <source_parent_mol>  (788) 
2

>  <source_scenario>  (788) 
1 2 4 0 3 8 0 0 0 2

>  <source_rank_in_scored_call>  (788) 
28

>  <source_current_task>  (788) 
no_task

>  <scenario>  (788) 
1 2 4 0 3 8 0 0 0

>  <protected_ring_attachments>  (788) 
0,5,4,6|5,4,6;1,3,4,6|3,4,6;3,1,0,2|1,0,2;4,5,0,2|5,0,2

>  <current_task>  (788) 
no_task

>  <rotatable_bond_torsions>  (788) 
1,0,2,9;0,2,9,11

$$$$

     RDKit          3D

 13 14  0  0  0  0  0  0  0  0999 V2000
  -28.3240   -7.3470  -31.6930 C   0  0  0  0  0  0  0  0  0  0  0  0
  -27.8840   -6.2590  -32.3170 N   0  0  0  0  0  0  0  0  0  0  0  0
  -28.4370   -8.7440  -32.1250 N   0  0  0  0  0  0  0  0  0  0  0  0
  -28.0610   -5.1600  -31.5490 C   0  0  0  0  0  0  0  0  0  0  0  0
  -28.6460   -5.5970  -30.3820 C   0  0  0  0  0  0  0  0  0  0  0  0
  -28.7890   -6.9260  -30.5030 N   0  0  0  0  0  0  0  0  0  0  0  0
  -28.8170   -4.5030  -29.6300 N   0  0  0  0  0  0  0  0  0  0  0  0
  -28.3940   -3.4440  -30.2220 O   0  0  0  0  0  0  0  0  0  0  0  0
  -27.9280   -3.7980  -31.3880 C   0  0  0  0  0  0  0  0  0  0  0  0
  -28.4820   -9.7960  -31.2080 C   0  0  0  0  0  0  0  0  0  0  0  0
  -28.5770   -9.7140  -29.9930 O   0  0  0  0  0  0  0  0  0  0  0  0
  -28.4370  -11.1990  -31.7610 C   0  0  0  0  0  0  0  0  0  0  0  0
  -29.2320  -12.1100  -30.8970 C   0  0  0  0  0  0  0  0  0  0  0  0
  1  2  2  0
  1  3  1  0
  1  6  1  0
  2  4  1  0
  3 10  1  0
  4  9  2  0
  4  5  1  0
  5  6  1  0
  5  7  2  0
  7  8  1  0
  8  9  1  0
 10 12  1  0
 10 11  2  0
 12 13  1  0
M  END
>  <name>  (789) 
Car Nac Nd0 Car Car Nd0 Nac O_a Car Cs2 .=O Cs3 Cs3

>  <indices>  (789) 
[0, 1, 2]

>  <tasks>  (789) 
probe_placing close_aromatic_ring close_aromatic_ring close_aromatic_ring ring_built fix_Car close_aromatic_ring close_aromatic_ring build_to_Nd0 build_DB_to_Cs2 build_SB_to_Cs2

>  <prot_clashes>  (789) 
1

>  <NBS phar>  (789) 
0.13999999999999999

>  <NBS_non-phar>  (789) 
0.5614425952617939

>  <NBS>  (789) 
0.7014425952617939

>  <source_stage>  (789) 
scored

>  <source_iter>  (789) 
10

>  <source_parent_mol>  (789) 
2

>  <source_scenario>  (789) 
1 2 4 0 3 8 0 0 0 2

>  <source_rank_in_scored_call>  (789) 
29

>  <source_current_task>  (789) 
no_task

>  <scenario>  (789) 
1 2 4 0 3 8 0 0 0

>  <protected_ring_attachments>  (789) 
0,5,4,6|5,4,6;1,3,4,6|3,4,6;3,1,0,2|1,0,2;4,5,0,2|5,0,2

>  <current_task>  (789) 
no_task

>  <rotatable_bond_torsions>  (789) 
1,0,2,9;0,2,9,11

$$$$

     RDKit          3D

 13 14  0  0  0  0  0  0  0  0999 V2000
  -28.4180   -7.3680  -31.7410 C   0  0  0  0  0  0  0  0  0  0  0  0
  -27.7240   -6.5090  -32.4820 N   0  0  0  0  0  0  0  0  0  0  0  0
  -28.7910   -8.7690  -31.9600 N   0  0  0  0  0  0  0  0  0  0  0  0
  -27.7170   -5.2820  -31.9130 C   0  0  0  0  0  0  0  0  0  0  0  0
  -28.4510   -5.3900  -30.7550 C   0  0  0  0  0  0  0  0  0  0  0  0
  -28.8590   -6.6670  -30.6820 N   0  0  0  0  0  0  0  0  0  0  0  0
  -28.4380   -4.1720  -30.2010 N   0  0  0  0  0  0  0  0  0  0  0  0
  -27.7680   -3.3330  -30.9070 O   0  0  0  0  0  0  0  0  0  0  0  0
  -27.3140   -3.9650  -31.9540 C   0  0  0  0  0  0  0  0  0  0  0  0
  -29.1110   -9.6200  -30.9000 C   0  0  0  0  0  0  0  0  0  0  0  0
  -29.2630   -9.3130  -29.7270 O   0  0  0  0  0  0  0  0  0  0  0  0
  -29.3240  -11.0780  -31.2230 C   0  0  0  0  0  0  0  0  0  0  0  0
  -28.0360  -11.7810  -31.7660 C   0  0  0  0  0  0  0  0  0  0  0  0
  1  2  2  0
  1  3  1  0
  1  6  1  0
  2  4  1  0
  3 10  1  0
  4  9  2  0
  4  5  1  0
  5  6  1  0
  5  7  2  0
  7  8  1  0
  8  9  1  0
 10 12  1  0
 10 11  2  0
 12 13  1  0
M  END
>  <name>  (790) 
Car Nac Nd0 Car Car Nd0 Nac O_a Car Cs2 .=O Cs3 Cs3

>  <indices>  (790) 
[0, 1, 2]

>  <tasks>  (790) 
probe_placing close_aromatic_ring close_aromatic_ring close_aromatic_ring ring_built fix_Car close_aromatic_ring close_aromatic_ring build_to_Nd0 build_DB_to_Cs2 build_SB_to_Cs2

>  <prot_clashes>  (790) 
2

>  <NBS phar>  (790) 
0.12

>  <NBS_non-phar>  (790) 
0.4972079350398137

>  <NBS>  (790) 
0.6172079350398136

>  <source_stage>  (790) 
scored

>  <source_iter>  (790) 
10

>  <source_parent_mol>  (790) 
2

>  <source_scenario>  (790) 
1 2 4 0 3 8 0 0 0 2

>  <source_rank_in_scored_call>  (790) 
36

>  <source_current_task>  (790) 
no_task

>  <scenario>  (790) 
1 2 4 0 3 8 0 0 0

>  <protected_ring_attachments>  (790) 
0,5,4,6|5,4,6;1,3,4,6|3,4,6;3,1,0,2|1,0,2;4,5,0,2|5,0,2

>  <current_task>  (790) 
no_task

>  <rotatable_bond_torsions>  (790) 
1,0,2,9;0,2,9,11

$$$$

     RDKit          3D

 13 14  0  0  0  0  0  0  0  0999 V2000
  -28.4190   -7.3680  -31.7240 C   0  0  0  0  0  0  0  0  0  0  0  0
  -27.7340   -6.5220  -32.4860 N   0  0  0  0  0  0  0  0  0  0  0  0
  -28.7990   -8.7710  -31.9180 N   0  0  0  0  0  0  0  0  0  0  0  0
  -27.7150   -5.2860  -31.9350 C   0  0  0  0  0  0  0  0  0  0  0  0
  -28.4320   -5.3770  -30.7650 C   0  0  0  0  0  0  0  0  0  0  0  0
  -28.8430   -6.6510  -30.6680 N   0  0  0  0  0  0  0  0  0  0  0  0
  -28.4080   -4.1510  -30.2280 N   0  0  0  0  0  0  0  0  0  0  0  0
  -27.7470   -3.3240  -30.9550 O   0  0  0  0  0  0  0  0  0  0  0  0
  -27.3090   -3.9710  -32.0000 C   0  0  0  0  0  0  0  0  0  0  0  0
  -29.1060   -9.6060  -30.8420 C   0  0  0  0  0  0  0  0  0  0  0  0
  -29.2400   -9.2830  -29.6710 O   0  0  0  0  0  0  0  0  0  0  0  0
  -29.3270  -11.0680  -31.1410 C   0  0  0  0  0  0  0  0  0  0  0  0
  -28.0660  -11.6920  -31.7770 C   0  0  0  0  0  0  0  0  0  0  0  0
  1  2  2  0
  1  3  1  0
  1  6  1  0
  2  4  1  0
  3 10  1  0
  4  9  2  0
  4  5  1  0
  5  6  1  0
  5  7  2  0
  7  8  1  0
  8  9  1  0
 10 12  1  0
 10 11  2  0
 12 13  1  0
M  END
>  <name>  (791) 
Car Nac Nd0 Car Car Nd0 Nac O_a Car Cs2 .=O Cs3 Cs3

>  <indices>  (791) 
[0, 1, 2]

>  <tasks>  (791) 
probe_placing close_aromatic_ring close_aromatic_ring close_aromatic_ring ring_built fix_Car close_aromatic_ring close_aromatic_ring build_to_Nd0 build_DB_to_Cs2 build_SB_to_Cs2

>  <prot_clashes>  (791) 
2

>  <NBS phar>  (791) 
0.12

>  <NBS_non-phar>  (791) 
0.4792809853186974

>  <NBS>  (791) 
0.5992809853186973

>  <source_stage>  (791) 
scored

>  <source_iter>  (791) 
10

>  <source_parent_mol>  (791) 
2

>  <source_scenario>  (791) 
1 2 4 0 3 8 0 0 0 2

>  <source_rank_in_scored_call>  (791) 
39

>  <source_current_task>  (791) 
no_task

>  <scenario>  (791) 
1 2 4 0 3 8 0 0 0

>  <protected_ring_attachments>  (791) 
0,5,4,6|5,4,6;1,3,4,6|3,4,6;3,1,0,2|1,0,2;4,5,0,2|5,0,2

>  <current_task>  (791) 
no_task

>  <rotatable_bond_torsions>  (791) 
1,0,2,9;0,2,9,11

$$$$

     RDKit          3D

 18 20  0  0  0  0  0  0  0  0999 V2000
  -28.0460   -7.5810  -31.2590 C   0  0  0  0  0  0  0  0  0  0  0  0
  -27.6620   -6.6780  -32.1550 N   0  0  0  0  0  0  0  0  0  0  0  0
  -28.1470   -9.0430  -31.3250 N   0  0  0  0  0  0  0  0  0  0  0  0
  -27.8290   -5.4240  -31.6730 C   0  0  0  0  0  0  0  0  0  0  0  0
  -28.3430   -5.5620  -30.4060 C   0  0  0  0  0  0  0  0  0  0  0  0
  -28.4610   -6.8830  -30.1870 N   0  0  0  0  0  0  0  0  0  0  0  0
  -28.5040   -4.3180  -29.9400 N   0  0  0  0  0  0  0  0  0  0  0  0
  -28.1330   -3.4350  -30.7980 O   0  0  0  0  0  0  0  0  0  0  0  0
  -27.7180   -4.0640  -31.8630 C   0  0  0  0  0  0  0  0  0  0  0  0
  -28.1230   -9.8340  -30.1750 C   0  0  0  0  0  0  0  0  0  0  0  0
  -28.1610   -9.4550  -29.0170 O   0  0  0  0  0  0  0  0  0  0  0  0
  -28.0730  -11.3300  -30.3650 C   0  0  0  0  0  0  0  0  0  0  0  0
  -29.3650  -12.1500  -30.1750 C   0  0  0  0  0  0  0  0  0  0  0  0
  -29.5940  -13.5150  -30.3730 C   0  0  0  0  0  0  0  0  0  0  0  0
  -30.3670  -11.4080  -29.5820 C   0  0  0  0  0  0  0  0  0  0  0  0
  -31.5450  -11.9590  -29.1970 N   0  0  0  0  0  0  0  0  0  0  0  0
  -30.7920  -14.0150  -29.9680 C   0  0  0  0  0  0  0  0  0  0  0  0
  -31.7960  -13.2770  -29.3760 C   0  0  0  0  0  0  0  0  0  0  0  0
  1  2  2  0
  1  3  1  0
  1  6  1  0
  2  4  1  0
  3 10  1  0
  4  9  2  0
  4  5  1  0
  5  6  1  0
  5  7  2  0
  7  8  1  0
  8  9  1  0
 10 12  1  0
 10 11  2  0
 12 13  1  0
 13 14  2  0
 13 15  1  0
 14 17  1  0
 15 16  2  0
 16 18  1  0
 17 18  2  0
M  END
>  <name>  (792) 
Car Nac Nd0 Car Car Nd0 Nac O_a Car Cs2 .=O Cs3 Car Car Car Nac Car Car

>  <indices>  (792) 
[0, 1, 2]

>  <tasks>  (792) 
probe_placing close_aromatic_ring close_aromatic_ring close_aromatic_ring ring_built fix_Car close_aromatic_ring close_aromatic_ring build_to_Nd0 build_DB_to_Cs2 build_SB_to_Cs2 no_task close_aromatic_ring close_aromatic_ring close_aromatic_ring close_aromatic_ring

>  <prot_clashes>  (792) 
1

>  <NBS phar>  (792) 
0.32

>  <NBS_non-phar>  (792) 
0.4901961750454373

>  <NBS>  (792) 
0.8101961750454373

>  <source_stage>  (792) 
scored

>  <source_iter>  (792) 
15

>  <source_parent_mol>  (792) 
0

>  <source_scenario>  (792) 
1 2 4 0 3 8 0 0 0 2 6 0 2 0 0

>  <source_rank_in_scored_call>  (792) 
0

>  <source_current_task>  (792) 
close_aromatic_ring

>  <scenario>  (792) 
1 2 4 0 3 8 0 0 0 2 6 0 2 0

>  <protected_ring_attachments>  (792) 
0,5,4,6|5,4,6;1,3,4,6|3,4,6;3,1,0,2|1,0,2;4,5,0,2|5,0,2

>  <current_task>  (792) 
no_task

>  <rotatable_bond_torsions>  (792) 
1,0,2,9;0,2,9,11;2,9,11,12;9,11,12,13;11,12,14,15

$$$$

     RDKit          3D

 17 19  0  0  0  0  0  0  0  0999 V2000
  -28.2810   -7.5750  -31.4270 C   0  0  0  0  0  0  0  0  0  0  0  0
  -27.6870   -6.6660  -32.1970 N   0  0  0  0  0  0  0  0  0  0  0  0
  -28.4800   -9.0190  -31.5950 N   0  0  0  0  0  0  0  0  0  0  0  0
  -27.8340   -5.4270  -31.6750 C   0  0  0  0  0  0  0  0  0  0  0  0
  -28.5620   -5.5820  -30.5180 C   0  0  0  0  0  0  0  0  0  0  0  0
  -28.8130   -6.8940  -30.3980 N   0  0  0  0  0  0  0  0  0  0  0  0
  -28.6990   -4.3500  -30.0110 N   0  0  0  0  0  0  0  0  0  0  0  0
  -28.1300   -3.4630  -30.7440 O   0  0  0  0  0  0  0  0  0  0  0  0
  -27.5930   -4.0740  -31.7640 C   0  0  0  0  0  0  0  0  0  0  0  0
  -28.7060   -9.8620  -30.5060 C   0  0  0  0  0  0  0  0  0  0  0  0
  -28.9040   -9.5320  -29.3450 O   0  0  0  0  0  0  0  0  0  0  0  0
  -28.6760  -11.4520  -30.8350 C   0  0  0  0  0  0  0  0  0  0  0  0
  -28.4440  -11.8930  -32.1390 C   0  0  0  0  0  0  0  0  0  0  0  0
  -28.4390  -13.2520  -32.3680 C   0  0  0  0  0  0  0  0  0  0  0  0
  -28.6580  -14.1490  -31.3400 C   0  0  0  0  0  0  0  0  0  0  0  0
  -28.8800  -13.7070  -30.0860 N   0  0  0  0  0  0  0  0  0  0  0  0
  -28.8920  -12.3710  -29.8230 C   0  0  0  0  0  0  0  0  0  0  0  0
  1  2  2  0
  1  3  1  0
  1  6  1  0
  2  4  1  0
  3 10  1  0
  4  9  2  0
  4  5  1  0
  5  6  1  0
  5  7  2  0
  7  8  1  0
  8  9  1  0
 10 12  1  0
 10 11  2  0
 12 13  2  0
 12 17  1  0
 13 14  1  0
 14 15  2  0
 15 16  1  0
 16 17  2  0
M  END
>  <name>  (793) 
Car Nac Nd0 Car Car Nd0 Nac O_a Car Cs2 .=O Car Car Car Car Nac Car

>  <indices>  (793) 
[0, 1, 2]

>  <tasks>  (793) 
probe_placing close_aromatic_ring close_aromatic_ring close_aromatic_ring ring_built fix_Car close_aromatic_ring close_aromatic_ring build_to_Nd0 build_DB_to_Cs2 build_SB_to_Cs2 close_aromatic_ring close_aromatic_ring close_aromatic_ring close_aromatic_ring

>  <prot_clashes>  (793) 
1

>  <NBS phar>  (793) 
0.2

>  <NBS_non-phar>  (793) 
0.5691478953642004

>  <NBS>  (793) 
0.7691478953642004

>  <source_stage>  (793) 
scored

>  <source_iter>  (793) 
14

>  <source_parent_mol>  (793) 
0

>  <source_scenario>  (793) 
1 2 4 0 3 8 0 0 0 3 0 1 0 0

>  <source_rank_in_scored_call>  (793) 
0

>  <source_current_task>  (793) 
close_aromatic_ring

>  <scenario>  (793) 
1 2 4 0 3 8 0 0 0 3 0 1 0

>  <protected_ring_attachments>  (793) 
0,5,4,6|5,4,6;1,3,4,6|3,4,6;3,1,0,2|1,0,2;4,5,0,2|5,0,2

>  <current_task>  (793) 
no_task

>  <rotatable_bond_torsions>  (793) 
1,0,2,9;0,2,9,11;2,9,11,12;11,12,13,14

$$$$

     RDKit          3D

 17 19  0  0  0  0  0  0  0  0999 V2000
  -28.3540   -7.5770  -31.4060 C   0  0  0  0  0  0  0  0  0  0  0  0
  -27.7880   -6.6760  -32.2060 N   0  0  0  0  0  0  0  0  0  0  0  0
  -28.5970   -9.0140  -31.5680 N   0  0  0  0  0  0  0  0  0  0  0  0
  -27.8730   -5.4370  -31.6690 C   0  0  0  0  0  0  0  0  0  0  0  0
  -28.5320   -5.5830  -30.4690 C   0  0  0  0  0  0  0  0  0  0  0  0
  -28.8070   -6.8900  -30.3410 N   0  0  0  0  0  0  0  0  0  0  0  0
  -28.6090   -4.3520  -29.9490 N   0  0  0  0  0  0  0  0  0  0  0  0
  -28.0650   -3.4730  -30.7090 O   0  0  0  0  0  0  0  0  0  0  0  0
  -27.6070   -4.0890  -31.7650 C   0  0  0  0  0  0  0  0  0  0  0  0
  -28.7730   -9.8580  -30.4710 C   0  0  0  0  0  0  0  0  0  0  0  0
  -28.8930   -9.5330  -29.3000 O   0  0  0  0  0  0  0  0  0  0  0  0
  -28.7820  -11.3630  -30.8170 C   0  0  0  0  0  0  0  0  0  0  0  0
  -29.0480  -12.3360  -29.8450 C   0  0  0  0  0  0  0  0  0  0  0  0
  -29.1330  -13.6530  -30.2320 C   0  0  0  0  0  0  0  0  0  0  0  0
  -28.6080  -11.7150  -32.1400 C   0  0  0  0  0  0  0  0  0  0  0  0
  -28.6970  -13.0120  -32.4900 N   0  0  0  0  0  0  0  0  0  0  0  0
  -28.9550  -13.9760  -31.5590 C   0  0  0  0  0  0  0  0  0  0  0  0
  1  2  2  0
  1  3  1  0
  1  6  1  0
  2  4  1  0
  3 10  1  0
  4  9  2  0
  4  5  1  0
  5  6  1  0
  5  7  2  0
  7  8  1  0
  8  9  1  0
 10 12  1  0
 10 11  2  0
 12 15  1  0
 12 13  2  0
 13 14  1  0
 14 17  2  0
 15 16  2  0
 16 17  1  0
M  END
>  <name>  (794) 
Car Nac Nd0 Car Car Nd0 Nac O_a Car Cs2 .=O Car Car Car Car Nac Car

>  <indices>  (794) 
[0, 1, 2]

>  <tasks>  (794) 
probe_placing close_aromatic_ring close_aromatic_ring close_aromatic_ring ring_built fix_Car close_aromatic_ring close_aromatic_ring build_to_Nd0 build_DB_to_Cs2 build_SB_to_Cs2 close_aromatic_ring close_aromatic_ring close_aromatic_ring close_aromatic_ring

>  <prot_clashes>  (794) 
1

>  <NBS phar>  (794) 
0.22000000000000003

>  <NBS_non-phar>  (794) 
0.5419141545015222

>  <NBS>  (794) 
0.7619141545015222

>  <source_stage>  (794) 
scored

>  <source_iter>  (794) 
14

>  <source_parent_mol>  (794) 
0

>  <source_scenario>  (794) 
1 2 4 0 3 8 0 0 0 3 3 1 0 0

>  <source_rank_in_scored_call>  (794) 
0

>  <source_current_task>  (794) 
close_aromatic_ring

>  <scenario>  (794) 
1 2 4 0 3 8 0 0 0 3 3 1 0

>  <protected_ring_attachments>  (794) 
0,5,4,6|5,4,6;1,3,4,6|3,4,6;3,1,0,2|1,0,2;4,5,0,2|5,0,2

>  <current_task>  (794) 
no_task

>  <rotatable_bond_torsions>  (794) 
1,0,2,9;0,2,9,11;2,9,11,12;9,11,14,15

$$$$

     RDKit          3D

 17 19  0  0  0  0  0  0  0  0999 V2000
  -28.3090   -7.5530  -31.3790 C   0  0  0  0  0  0  0  0  0  0  0  0
  -27.7590   -6.6280  -32.1610 N   0  0  0  0  0  0  0  0  0  0  0  0
  -28.4930   -8.9970  -31.5560 N   0  0  0  0  0  0  0  0  0  0  0  0
  -27.9040   -5.3950  -31.6190 C   0  0  0  0  0  0  0  0  0  0  0  0
  -28.5860   -5.5740  -30.4360 C   0  0  0  0  0  0  0  0  0  0  0  0
  -28.8120   -6.8910  -30.3210 N   0  0  0  0  0  0  0  0  0  0  0  0
  -28.7210   -4.3500  -29.9110 N   0  0  0  0  0  0  0  0  0  0  0  0
  -28.1940   -3.4470  -30.6540 O   0  0  0  0  0  0  0  0  0  0  0  0
  -27.6880   -4.0380  -31.7010 C   0  0  0  0  0  0  0  0  0  0  0  0
  -28.6620   -9.8550  -30.4670 C   0  0  0  0  0  0  0  0  0  0  0  0
  -28.8220   -9.5420  -29.2970 O   0  0  0  0  0  0  0  0  0  0  0  0
  -28.6060  -11.3440  -30.8130 C   0  0  0  0  0  0  0  0  0  0  0  0
  -28.8450  -12.3440  -29.8670 C   0  0  0  0  0  0  0  0  0  0  0  0
  -28.8920  -13.6800  -30.2100 C   0  0  0  0  0  0  0  0  0  0  0  0
  -28.4080  -11.6840  -32.1360 C   0  0  0  0  0  0  0  0  0  0  0  0
  -28.6880  -14.0010  -31.5550 C   0  0  0  0  0  0  0  0  0  0  0  0
  -28.4500  -13.0240  -32.5050 C   0  0  0  0  0  0  0  0  0  0  0  0
  1  2  2  0
  1  3  1  0
  1  6  1  0
  2  4  1  0
  3 10  1  0
  4  9  2  0
  4  5  1  0
  5  6  1  0
  5  7  2  0
  7  8  1  0
  8  9  1  0
 10 12  1  0
 10 11  2  0
 12 15  1  0
 12 13  2  0
 13 14  1  0
 14 16  2  0
 15 17  2  0
 16 17  1  0
M  END
>  <name>  (795) 
Car Nac Nd0 Car Car Nd0 Nac O_a Car Cs2 .=O Car Car Car Car Car Car

>  <indices>  (795) 
[0, 1, 2]

>  <tasks>  (795) 
probe_placing close_aromatic_ring close_aromatic_ring close_aromatic_ring ring_built fix_Car close_aromatic_ring close_aromatic_ring build_to_Nd0 build_DB_to_Cs2 build_SB_to_Cs2 close_aromatic_ring close_aromatic_ring close_aromatic_ring close_aromatic_ring

>  <prot_clashes>  (795) 
1

>  <NBS phar>  (795) 
0.2

>  <NBS_non-phar>  (795) 
0.5556771895464729

>  <NBS>  (795) 
0.7556771895464729

>  <source_stage>  (795) 
scored

>  <source_iter>  (795) 
14

>  <source_parent_mol>  (795) 
1

>  <source_scenario>  (795) 
1 2 4 0 3 8 0 0 0 3 3 1 0 1

>  <source_rank_in_scored_call>  (795) 
0

>  <source_current_task>  (795) 
close_aromatic_ring

>  <scenario>  (795) 
1 2 4 0 3 8 0 0 0 3 3 1 0

>  <protected_ring_attachments>  (795) 
0,5,4,6|5,4,6;1,3,4,6|3,4,6;3,1,0,2|1,0,2;4,5,0,2|5,0,2

>  <current_task>  (795) 
no_task

>  <rotatable_bond_torsions>  (795) 
1,0,2,9;0,2,9,11;2,9,11,12;11,12,13,15

$$$$

     RDKit          3D

 17 19  0  0  0  0  0  0  0  0999 V2000
  -28.3240   -7.5710  -31.4700 C   0  0  0  0  0  0  0  0  0  0  0  0
  -27.6730   -6.7440  -32.2840 N   0  0  0  0  0  0  0  0  0  0  0  0
  -28.6160   -9.0050  -31.5630 N   0  0  0  0  0  0  0  0  0  0  0  0
  -27.7390   -5.4710  -31.8270 C   0  0  0  0  0  0  0  0  0  0  0  0
  -28.4770   -5.5180  -30.6650 C   0  0  0  0  0  0  0  0  0  0  0  0
  -28.8120   -6.8030  -30.4780 N   0  0  0  0  0  0  0  0  0  0  0  0
  -28.5330   -4.2550  -30.2250 N   0  0  0  0  0  0  0  0  0  0  0  0
  -27.9080   -3.4470  -31.0000 O   0  0  0  0  0  0  0  0  0  0  0  0
  -27.4120   -4.1430  -31.9850 C   0  0  0  0  0  0  0  0  0  0  0  0
  -28.8950   -9.7730  -30.4300 C   0  0  0  0  0  0  0  0  0  0  0  0
  -29.0720   -9.3720  -29.2900 O   0  0  0  0  0  0  0  0  0  0  0  0
  -28.9470  -11.2920  -30.6720 C   0  0  0  0  0  0  0  0  0  0  0  0
  -29.3120  -12.1800  -29.6820 C   0  0  0  0  0  0  0  0  0  0  0  0
  -29.4270  -13.5230  -29.9830 C   0  0  0  0  0  0  0  0  0  0  0  0
  -28.7080  -11.7800  -31.9420 C   0  0  0  0  0  0  0  0  0  0  0  0
  -29.1700  -13.9310  -31.2770 C   0  0  0  0  0  0  0  0  0  0  0  0
  -28.8130  -13.0850  -32.2610 N   0  0  0  0  0  0  0  0  0  0  0  0
  1  2  2  0
  1  3  1  0
  1  6  1  0
  2  4  1  0
  3 10  1  0
  4  9  2  0
  4  5  1  0
  5  6  1  0
  5  7  2  0
  7  8  1  0
  8  9  1  0
 10 12  1  0
 10 11  2  0
 12 15  1  0
 12 13  2  0
 13 14  1  0
 14 16  2  0
 15 17  2  0
 16 17  1  0
M  END
>  <name>  (796) 
Car Nac Nd0 Car Car Nd0 Nac O_a Car Cs2 .=O Car Car Car Car Car Nac

>  <indices>  (796) 
[0, 1, 2]

>  <tasks>  (796) 
probe_placing close_aromatic_ring close_aromatic_ring close_aromatic_ring ring_built fix_Car close_aromatic_ring close_aromatic_ring build_to_Nd0 build_DB_to_Cs2 build_SB_to_Cs2 close_aromatic_ring close_aromatic_ring close_aromatic_ring close_aromatic_ring

>  <prot_clashes>  (796) 
1

>  <NBS phar>  (796) 
0.22000000000000003

>  <NBS_non-phar>  (796) 
0.49224000818589153

>  <NBS>  (796) 
0.7122400081858915

>  <source_stage>  (796) 
scored

>  <source_iter>  (796) 
14

>  <source_parent_mol>  (796) 
1

>  <source_scenario>  (796) 
1 2 4 0 3 8 0 0 0 3 3 1 0 1

>  <source_rank_in_scored_call>  (796) 
2

>  <source_current_task>  (796) 
close_aromatic_ring

>  <scenario>  (796) 
1 2 4 0 3 8 0 0 0 3 3 1 0

>  <protected_ring_attachments>  (796) 
0,5,4,6|5,4,6;1,3,4,6|3,4,6;3,1,0,2|1,0,2;4,5,0,2|5,0,2

>  <current_task>  (796) 
no_task

>  <rotatable_bond_torsions>  (796) 
1,0,2,9;0,2,9,11;2,9,11,12;11,12,13,15

$$$$

     RDKit          3D

 17 19  0  0  0  0  0  0  0  0999 V2000
  -28.2130   -7.5710  -31.3620 C   0  0  0  0  0  0  0  0  0  0  0  0
  -27.6570   -6.6280  -32.1190 N   0  0  0  0  0  0  0  0  0  0  0  0
  -28.3430   -9.0200  -31.5430 N   0  0  0  0  0  0  0  0  0  0  0  0
  -27.8660   -5.4010  -31.5870 C   0  0  0  0  0  0  0  0  0  0  0  0
  -28.5960   -5.6000  -30.4370 C   0  0  0  0  0  0  0  0  0  0  0  0
  -28.7860   -6.9240  -30.3300 N   0  0  0  0  0  0  0  0  0  0  0  0
  -28.7950   -4.3810  -29.9210 N   0  0  0  0  0  0  0  0  0  0  0  0
  -28.2620   -3.4630  -30.6400 O   0  0  0  0  0  0  0  0  0  0  0  0
  -27.6880   -4.0370  -31.6610 C   0  0  0  0  0  0  0  0  0  0  0  0
  -28.5370   -9.8820  -30.4620 C   0  0  0  0  0  0  0  0  0  0  0  0
  -28.7610   -9.5730  -29.3020 O   0  0  0  0  0  0  0  0  0  0  0  0
  -28.4240  -11.3660  -30.8110 C   0  0  0  0  0  0  0  0  0  0  0  0
  -28.5260  -12.3660  -29.8620 C   0  0  0  0  0  0  0  0  0  0  0  0
  -28.6470  -13.6990  -30.1840 C   0  0  0  0  0  0  0  0  0  0  0  0
  -28.4470  -11.7490  -32.1380 C   0  0  0  0  0  0  0  0  0  0  0  0
  -28.6640  -14.0130  -31.4880 N   0  0  0  0  0  0  0  0  0  0  0  0
  -28.5680  -13.0850  -32.4630 C   0  0  0  0  0  0  0  0  0  0  0  0
  1  2  2  0
  1  3  1  0
  1  6  1  0
  2  4  1  0
  3 10  1  0
  4  9  2  0
  4  5  1  0
  5  6  1  0
  5  7  2  0
  7  8  1  0
  8  9  1  0
 10 12  1  0
 10 11  2  0
 12 15  1  0
 12 13  2  0
 13 14  1  0
 14 16  2  0
 15 17  2  0
 16 17  1  0
M  END
>  <name>  (797) 
Car Nac Nd0 Car Car Nd0 Nac O_a Car Cs2 .=O Car Car Car Car Nac Car

>  <indices>  (797) 
[0, 1, 2]

>  <tasks>  (797) 
probe_placing close_aromatic_ring close_aromatic_ring close_aromatic_ring ring_built fix_Car close_aromatic_ring close_aromatic_ring build_to_Nd0 build_DB_to_Cs2 build_SB_to_Cs2 close_aromatic_ring close_aromatic_ring close_aromatic_ring close_aromatic_ring

>  <prot_clashes>  (797) 
1

>  <NBS phar>  (797) 
0.2

>  <NBS_non-phar>  (797) 
0.47587069343118105

>  <NBS>  (797) 
0.6758706934311811

>  <source_stage>  (797) 
scored

>  <source_iter>  (797) 
14

>  <source_parent_mol>  (797) 
3

>  <source_scenario>  (797) 
1 2 4 0 3 8 0 0 0 3 3 1 0 3

>  <source_rank_in_scored_call>  (797) 
0

>  <source_current_task>  (797) 
close_aromatic_ring

>  <scenario>  (797) 
1 2 4 0 3 8 0 0 0 3 3 1 0

>  <protected_ring_attachments>  (797) 
0,5,4,6|5,4,6;1,3,4,6|3,4,6;3,1,0,2|1,0,2;4,5,0,2|5,0,2

>  <current_task>  (797) 
no_task

>  <rotatable_bond_torsions>  (797) 
1,0,2,9;0,2,9,11;2,9,11,12;11,12,13,15

$$$$

     RDKit          3D

 17 19  0  0  0  0  0  0  0  0999 V2000
  -28.3240   -7.5000  -31.4290 C   0  0  0  0  0  0  0  0  0  0  0  0
  -27.6750   -6.6440  -32.2140 N   0  0  0  0  0  0  0  0  0  0  0  0
  -28.5970   -8.9350  -31.5620 N   0  0  0  0  0  0  0  0  0  0  0  0
  -27.7630   -5.3850  -31.7250 C   0  0  0  0  0  0  0  0  0  0  0  0
  -28.5110   -5.4710  -30.5730 C   0  0  0  0  0  0  0  0  0  0  0  0
  -28.8320   -6.7650  -30.4230 N   0  0  0  0  0  0  0  0  0  0  0  0
  -28.5890   -4.2220  -30.1000 N   0  0  0  0  0  0  0  0  0  0  0  0
  -27.9660   -3.3860  -30.8470 O   0  0  0  0  0  0  0  0  0  0  0  0
  -27.4500   -4.0480  -31.8440 C   0  0  0  0  0  0  0  0  0  0  0  0
  -28.8770   -9.7360  -30.4530 C   0  0  0  0  0  0  0  0  0  0  0  0
  -29.0720   -9.3670  -29.3050 O   0  0  0  0  0  0  0  0  0  0  0  0
  -28.9120  -11.2330  -30.7340 C   0  0  0  0  0  0  0  0  0  0  0  0
  -29.2680  -12.1400  -29.7550 C   0  0  0  0  0  0  0  0  0  0  0  0
  -29.3470  -13.4650  -30.1270 C   0  0  0  0  0  0  0  0  0  0  0  0
  -28.6590  -11.6890  -32.0070 C   0  0  0  0  0  0  0  0  0  0  0  0
  -29.0950  -13.8890  -31.3790 N   0  0  0  0  0  0  0  0  0  0  0  0
  -28.7480  -13.0380  -32.3490 C   0  0  0  0  0  0  0  0  0  0  0  0
  1  2  2  0
  1  3  1  0
  1  6  1  0
  2  4  1  0
  3 10  1  0
  4  9  2  0
  4  5  1  0
  5  6  1  0
  5  7  2  0
  7  8  1  0
  8  9  1  0
 10 12  1  0
 10 11  2  0
 12 15  1  0
 12 13  2  0
 13 14  1  0
 14 16  2  0
 15 17  2  0
 16 17  1  0
M  END
>  <name>  (798) 
Car Nac Nd0 Car Car Nd0 Nac O_a Car Cs2 .=O Car Car Car Car Nac Car

>  <indices>  (798) 
[0, 1, 2]

>  <tasks>  (798) 
probe_placing close_aromatic_ring close_aromatic_ring close_aromatic_ring ring_built fix_Car close_aromatic_ring close_aromatic_ring build_to_Nd0 build_DB_to_Cs2 build_SB_to_Cs2 close_aromatic_ring close_aromatic_ring close_aromatic_ring close_aromatic_ring

>  <prot_clashes>  (798) 
1

>  <NBS phar>  (798) 
0.2

>  <NBS_non-phar>  (798) 
0.4477371889002183

>  <NBS>  (798) 
0.6477371889002184

>  <source_stage>  (798) 
scored

>  <source_iter>  (798) 
14

>  <source_parent_mol>  (798) 
3

>  <source_scenario>  (798) 
1 2 4 0 3 8 0 0 0 3 3 1 0 3

>  <source_rank_in_scored_call>  (798) 
1

>  <source_current_task>  (798) 
close_aromatic_ring

>  <scenario>  (798) 
1 2 4 0 3 8 0 0 0 3 3 1 0

>  <protected_ring_attachments>  (798) 
0,5,4,6|5,4,6;1,3,4,6|3,4,6;3,1,0,2|1,0,2;4,5,0,2|5,0,2

>  <current_task>  (798) 
no_task

>  <rotatable_bond_torsions>  (798) 
1,0,2,9;0,2,9,11;2,9,11,12;11,12,13,15

$$$$

     RDKit          3D

 17 19  0  0  0  0  0  0  0  0999 V2000
  -28.2790   -7.5130  -31.5430 C   0  0  0  0  0  0  0  0  0  0  0  0
  -27.6900   -6.5800  -32.2850 N   0  0  0  0  0  0  0  0  0  0  0  0
  -28.4870   -8.9480  -31.7610 N   0  0  0  0  0  0  0  0  0  0  0  0
  -27.8260   -5.3580  -31.7160 C   0  0  0  0  0  0  0  0  0  0  0  0
  -28.5420   -5.5520  -30.5580 C   0  0  0  0  0  0  0  0  0  0  0  0
  -28.7990   -6.8670  -30.4830 N   0  0  0  0  0  0  0  0  0  0  0  0
  -28.6690   -4.3400  -30.0050 N   0  0  0  0  0  0  0  0  0  0  0  0
  -28.1050   -3.4280  -30.7100 O   0  0  0  0  0  0  0  0  0  0  0  0
  -27.5800   -4.0040  -31.7570 C   0  0  0  0  0  0  0  0  0  0  0  0
  -28.7040   -9.8290  -30.7010 C   0  0  0  0  0  0  0  0  0  0  0  0
  -28.8910   -9.5420  -29.5280 O   0  0  0  0  0  0  0  0  0  0  0  0
  -28.6950  -11.3390  -31.1090 C   0  0  0  0  0  0  0  0  0  0  0  0
  -28.9380  -12.3000  -30.1460 C   0  0  0  0  0  0  0  0  0  0  0  0
  -28.9890  -13.6170  -30.5930 C   0  0  0  0  0  0  0  0  0  0  0  0
  -28.8040  -13.9360  -31.9370 C   0  0  0  0  0  0  0  0  0  0  0  0
  -28.5160  -11.6440  -32.4140 N   0  0  0  0  0  0  0  0  0  0  0  0
  -28.5660  -12.9200  -32.8420 C   0  0  0  0  0  0  0  0  0  0  0  0
  1  2  2  0
  1  3  1  0
  1  6  1  0
  2  4  1  0
  3 10  1  0
  4  9  2  0
  4  5  1  0
  5  6  1  0
  5  7  2  0
  7  8  1  0
  8  9  1  0
 10 12  1  0
 10 11  2  0
 12 16  1  0
 12 13  2  0
 13 14  1  0
 14 15  2  0
 15 17  1  0
 16 17  2  0
M  END
>  <name>  (799) 
Car Nac Nd0 Car Car Nd0 Nac O_a Car Cs2 .=O Car Car Car Car Nac Car

>  <indices>  (799) 
[0, 1, 2]

>  <tasks>  (799) 
probe_placing close_aromatic_ring close_aromatic_ring close_aromatic_ring ring_built fix_Car close_aromatic_ring close_aromatic_ring build_to_Nd0 build_DB_to_Cs2 build_SB_to_Cs2 close_aromatic_ring close_aromatic_ring close_aromatic_ring close_aromatic_ring

>  <prot_clashes>  (799) 
1

>  <NBS phar>  (799) 
0.22000000000000003

>  <NBS_non-phar>  (799) 
0.5027944901410271

>  <NBS>  (799) 
0.722794490141027

>  <source_stage>  (799) 
scored

>  <source_iter>  (799) 
14

>  <source_parent_mol>  (799) 
0

>  <source_scenario>  (799) 
1 2 4 0 3 8 0 0 0 3 3 1 1 0

>  <source_rank_in_scored_call>  (799) 
2

>  <source_current_task>  (799) 
close_aromatic_ring

>  <scenario>  (799) 
1 2 4 0 3 8 0 0 0 3 3 1 1

>  <protected_ring_attachments>  (799) 
0,5,4,6|5,4,6;1,3,4,6|3,4,6;3,1,0,2|1,0,2;4,5,0,2|5,0,2

>  <current_task>  (799) 
no_task

>  <rotatable_bond_torsions>  (799) 
1,0,2,9;0,2,9,11;2,9,11,12;11,12,13,14

$$$$

     RDKit          3D

 17 19  0  0  0  0  0  0  0  0999 V2000
  -28.2880   -7.5520  -31.5270 C   0  0  0  0  0  0  0  0  0  0  0  0
  -27.7060   -6.6150  -32.2670 N   0  0  0  0  0  0  0  0  0  0  0  0
  -28.4920   -8.9870  -31.7490 N   0  0  0  0  0  0  0  0  0  0  0  0
  -27.8430   -5.3950  -31.6950 C   0  0  0  0  0  0  0  0  0  0  0  0
  -28.5550   -5.5950  -30.5340 C   0  0  0  0  0  0  0  0  0  0  0  0
  -28.8060   -6.9110  -30.4630 N   0  0  0  0  0  0  0  0  0  0  0  0
  -28.6830   -4.3860  -29.9780 N   0  0  0  0  0  0  0  0  0  0  0  0
  -28.1240   -3.4700  -30.6820 O   0  0  0  0  0  0  0  0  0  0  0  0
  -27.6010   -4.0410  -31.7340 C   0  0  0  0  0  0  0  0  0  0  0  0
  -28.7020   -9.8730  -30.6890 C   0  0  0  0  0  0  0  0  0  0  0  0
  -28.8860   -9.5890  -29.5150 O   0  0  0  0  0  0  0  0  0  0  0  0
  -28.6780  -11.3400  -31.1880 C   0  0  0  0  0  0  0  0  0  0  0  0
  -28.9030  -12.3470  -30.2440 C   0  0  0  0  0  0  0  0  0  0  0  0
  -28.9640  -13.6710  -30.6450 C   0  0  0  0  0  0  0  0  0  0  0  0
  -28.8080  -14.0190  -31.9680 C   0  0  0  0  0  0  0  0  0  0  0  0
  -28.5900  -12.9980  -32.8650 C   0  0  0  0  0  0  0  0  0  0  0  0
  -28.5290  -11.6980  -32.4680 N   0  0  0  0  0  0  0  0  0  0  0  0
  1  2  2  0
  1  3  1  0
  1  6  1  0
  2  4  1  0
  3 10  1  0
  4  9  2  0
  4  5  1  0
  5  6  1  0
  5  7  2  0
  7  8  1  0
  8  9  1  0
 10 12  1  0
 10 11  2  0
 12 17  1  0
 12 13  2  0
 13 14  1  0
 14 15  2  0
 15 16  1  0
 16 17  2  0
M  END
>  <name>  (800) 
Car Nac Nd0 Car Car Nd0 Nac O_a Car Cs2 .=O Car Car Car Car Car Nac

>  <indices>  (800) 
[0, 1, 2]

>  <tasks>  (800) 
probe_placing close_aromatic_ring close_aromatic_ring close_aromatic_ring ring_built fix_Car close_aromatic_ring close_aromatic_ring build_to_Nd0 build_DB_to_Cs2 build_SB_to_Cs2 close_aromatic_ring close_aromatic_ring close_aromatic_ring close_aromatic_ring

>  <prot_clashes>  (800) 
1

>  <NBS phar>  (800) 
0.22000000000000003

>  <NBS_non-phar>  (800) 
0.52851744259105

>  <NBS>  (800) 
0.7485174425910501

>  <source_stage>  (800) 
scored

>  <source_iter>  (800) 
14

>  <source_parent_mol>  (800) 
2

>  <source_scenario>  (800) 
1 2 4 0 3 8 0 0 0 3 3 1 1 2

>  <source_rank_in_scored_call>  (800) 
2

>  <source_current_task>  (800) 
close_aromatic_ring

>  <scenario>  (800) 
1 2 4 0 3 8 0 0 0 3 3 1 1

>  <protected_ring_attachments>  (800) 
0,5,4,6|5,4,6;1,3,4,6|3,4,6;3,1,0,2|1,0,2;4,5,0,2|5,0,2

>  <current_task>  (800) 
no_task

>  <rotatable_bond_torsions>  (800) 
1,0,2,9;0,2,9,11;2,9,11,12;11,12,13,14

$$$$

     RDKit          3D

 17 19  0  0  0  0  0  0  0  0999 V2000
  -28.2680   -7.5560  -31.3860 C   0  0  0  0  0  0  0  0  0  0  0  0
  -27.6890   -6.6470  -32.1640 N   0  0  0  0  0  0  0  0  0  0  0  0
  -28.4440   -9.0040  -31.5390 N   0  0  0  0  0  0  0  0  0  0  0  0
  -27.8550   -5.4030  -31.6560 C   0  0  0  0  0  0  0  0  0  0  0  0
  -28.5820   -5.5560  -30.4970 C   0  0  0  0  0  0  0  0  0  0  0  0
  -28.8140   -6.8720  -30.3640 N   0  0  0  0  0  0  0  0  0  0  0  0
  -28.7400   -4.3230  -30.0050 N   0  0  0  0  0  0  0  0  0  0  0  0
  -28.1840   -3.4340  -30.7450 O   0  0  0  0  0  0  0  0  0  0  0  0
  -27.6350   -4.0480  -31.7580 C   0  0  0  0  0  0  0  0  0  0  0  0
  -28.6570   -9.8380  -30.4400 C   0  0  0  0  0  0  0  0  0  0  0  0
  -28.8640   -9.5000  -29.2850 O   0  0  0  0  0  0  0  0  0  0  0  0
  -28.6190  -11.3320  -30.8020 C   0  0  0  0  0  0  0  0  0  0  0  0
  -28.8330  -12.2870  -29.8200 C   0  0  0  0  0  0  0  0  0  0  0  0
  -28.8520  -13.6140  -30.2180 C   0  0  0  0  0  0  0  0  0  0  0  0
  -28.6720  -14.0150  -31.5200 C   0  0  0  0  0  0  0  0  0  0  0  0
  -28.4620  -13.0510  -32.4710 C   0  0  0  0  0  0  0  0  0  0  0  0
  -28.4310  -11.6990  -32.1340 C   0  0  0  0  0  0  0  0  0  0  0  0
  1  2  2  0
  1  3  1  0
  1  6  1  0
  2  4  1  0
  3 10  1  0
  4  9  2  0
  4  5  1  0
  5  6  1  0
  5  7  2  0
  7  8  1  0
  8  9  1  0
 10 12  1  0
 10 11  2  0
 12 17  1  0
 12 13  2  0
 13 14  1  0
 14 15  2  0
 15 16  1  0
 16 17  2  0
M  END
>  <name>  (801) 
Car Nac Nd0 Car Car Nd0 Nac O_a Car Cs2 .=O Car Car Car Car Car Car

>  <indices>  (801) 
[0, 1, 2]

>  <tasks>  (801) 
probe_placing close_aromatic_ring close_aromatic_ring close_aromatic_ring ring_built fix_Car close_aromatic_ring close_aromatic_ring build_to_Nd0 build_DB_to_Cs2 build_SB_to_Cs2 close_aromatic_ring close_aromatic_ring close_aromatic_ring close_aromatic_ring

>  <prot_clashes>  (801) 
1

>  <NBS phar>  (801) 
0.2

>  <NBS_non-phar>  (801) 
0.5361230513628792

>  <NBS>  (801) 
0.7361230513628791

>  <source_stage>  (801) 
scored

>  <source_iter>  (801) 
14

>  <source_parent_mol>  (801) 
2

>  <source_scenario>  (801) 
1 2 4 0 3 8 0 0 0 3 3 1 1 2

>  <source_rank_in_scored_call>  (801) 
3

>  <source_current_task>  (801) 
close_aromatic_ring

>  <scenario>  (801) 
1 2 4 0 3 8 0 0 0 3 3 1 1

>  <protected_ring_attachments>  (801) 
0,5,4,6|5,4,6;1,3,4,6|3,4,6;3,1,0,2|1,0,2;4,5,0,2|5,0,2

>  <current_task>  (801) 
no_task

>  <rotatable_bond_torsions>  (801) 
1,0,2,9;0,2,9,11;2,9,11,12;11,12,13,14

$$$$

     RDKit          3D

 17 19  0  0  0  0  0  0  0  0999 V2000
  -28.1770   -7.5660  -31.3410 C   0  0  0  0  0  0  0  0  0  0  0  0
  -27.6800   -6.6270  -32.1380 N   0  0  0  0  0  0  0  0  0  0  0  0
  -28.3150   -9.0170  -31.5070 N   0  0  0  0  0  0  0  0  0  0  0  0
  -27.8540   -5.3970  -31.5990 C   0  0  0  0  0  0  0  0  0  0  0  0
  -28.5000   -5.5920  -30.4000 C   0  0  0  0  0  0  0  0  0  0  0  0
  -28.6790   -6.9170  -30.2740 N   0  0  0  0  0  0  0  0  0  0  0  0
  -28.6660   -4.3730  -29.8770 N   0  0  0  0  0  0  0  0  0  0  0  0
  -28.1890   -3.4540  -30.6360 O   0  0  0  0  0  0  0  0  0  0  0  0
  -27.6860   -4.0340  -31.6920 C   0  0  0  0  0  0  0  0  0  0  0  0
  -28.4290   -9.8750  -30.4110 C   0  0  0  0  0  0  0  0  0  0  0  0
  -28.5730   -9.5610  -29.2380 O   0  0  0  0  0  0  0  0  0  0  0  0
  -28.5510  -11.3710  -30.7560 C   0  0  0  0  0  0  0  0  0  0  0  0
  -28.4890  -12.3680  -29.7800 C   0  0  0  0  0  0  0  0  0  0  0  0
  -28.4000  -13.7030  -30.1790 C   0  0  0  0  0  0  0  0  0  0  0  0
  -28.3770  -13.9990  -31.5350 C   0  0  0  0  0  0  0  0  0  0  0  0
  -28.4380  -13.0290  -32.5120 C   0  0  0  0  0  0  0  0  0  0  0  0
  -28.5260  -11.7140  -32.1010 C   0  0  0  0  0  0  0  0  0  0  0  0
  1  2  2  0
  1  3  1  0
  1  6  1  0
  2  4  1  0
  3 10  1  0
  4  9  2  0
  4  5  1  0
  5  6  1  0
  5  7  2  0
  7  8  1  0
  8  9  1  0
 10 12  1  0
 10 11  2  0
 12 17  1  0
 12 13  2  0
 13 14  1  0
 14 15  2  0
 15 16  1  0
 16 17  2  0
M  END
>  <name>  (802) 
Car Nac Nd0 Car Car Nd0 Nac O_a Car Cs2 .=O Car Car Car Car Car Car

>  <indices>  (802) 
[0, 1, 2]

>  <tasks>  (802) 
probe_placing close_aromatic_ring close_aromatic_ring close_aromatic_ring ring_built fix_Car close_aromatic_ring close_aromatic_ring build_to_Nd0 build_DB_to_Cs2 build_SB_to_Cs2 close_aromatic_ring close_aromatic_ring close_aromatic_ring close_aromatic_ring

>  <prot_clashes>  (802) 
0

>  <NBS phar>  (802) 
0.2

>  <NBS_non-phar>  (802) 
0.5004740322337431

>  <NBS>  (802) 
0.700474032233743

>  <source_stage>  (802) 
scored

>  <source_iter>  (802) 
14

>  <source_parent_mol>  (802) 
2

>  <source_scenario>  (802) 
1 2 4 0 3 8 0 0 0 3 3 1 1 2

>  <source_rank_in_scored_call>  (802) 
4

>  <source_current_task>  (802) 
close_aromatic_ring

>  <scenario>  (802) 
1 2 4 0 3 8 0 0 0 3 3 1 1

>  <protected_ring_attachments>  (802) 
0,5,4,6|5,4,6;1,3,4,6|3,4,6;3,1,0,2|1,0,2;4,5,0,2|5,0,2

>  <current_task>  (802) 
no_task

>  <rotatable_bond_torsions>  (802) 
1,0,2,9;0,2,9,11;2,9,11,12;11,12,13,14

$$$$

     RDKit          3D

 17 19  0  0  0  0  0  0  0  0999 V2000
  -28.2780   -7.5040  -31.4940 C   0  0  0  0  0  0  0  0  0  0  0  0
  -27.8030   -6.5530  -32.2930 N   0  0  0  0  0  0  0  0  0  0  0  0
  -28.4900   -8.9400  -31.7040 N   0  0  0  0  0  0  0  0  0  0  0  0
  -27.8850   -5.3400  -31.6960 C   0  0  0  0  0  0  0  0  0  0  0  0
  -28.4450   -5.5580  -30.4590 C   0  0  0  0  0  0  0  0  0  0  0  0
  -28.6710   -6.8790  -30.3700 N   0  0  0  0  0  0  0  0  0  0  0  0
  -28.5200   -4.3550  -29.8800 N   0  0  0  0  0  0  0  0  0  0  0  0
  -28.0630   -3.4270  -30.6380 O   0  0  0  0  0  0  0  0  0  0  0  0
  -27.6660   -3.9810  -31.7520 C   0  0  0  0  0  0  0  0  0  0  0  0
  -28.5580   -9.8360  -30.6350 C   0  0  0  0  0  0  0  0  0  0  0  0
  -28.6000   -9.5650  -29.4450 O   0  0  0  0  0  0  0  0  0  0  0  0
  -28.6510  -11.4190  -31.1740 C   0  0  0  0  0  0  0  0  0  0  0  0
  -28.6650  -12.3750  -30.1780 C   0  0  0  0  0  0  0  0  0  0  0  0
  -28.7400  -13.7020  -30.5450 C   0  0  0  0  0  0  0  0  0  0  0  0
  -28.8030  -14.1130  -31.8610 C   0  0  0  0  0  0  0  0  0  0  0  0
  -28.7860  -13.1480  -32.7980 N   0  0  0  0  0  0  0  0  0  0  0  0
  -28.7140  -11.8390  -32.4850 C   0  0  0  0  0  0  0  0  0  0  0  0
  1  2  2  0
  1  3  1  0
  1  6  1  0
  2  4  1  0
  3 10  1  0
  4  9  2  0
  4  5  1  0
  5  6  1  0
  5  7  2  0
  7  8  1  0
  8  9  1  0
 10 12  1  0
 10 11  2  0
 12 17  1  0
 12 13  2  0
 13 14  1  0
 14 15  2  0
 15 16  1  0
 16 17  2  0
M  END
>  <name>  (803) 
Car Nac Nd0 Car Car Nd0 Nac O_a Car Cs2 .=O Car Car Car Car Nac Car

>  <indices>  (803) 
[0, 1, 2]

>  <tasks>  (803) 
probe_placing close_aromatic_ring close_aromatic_ring close_aromatic_ring ring_built fix_Car close_aromatic_ring close_aromatic_ring build_to_Nd0 build_DB_to_Cs2 build_SB_to_Cs2 close_aromatic_ring close_aromatic_ring close_aromatic_ring close_aromatic_ring

>  <prot_clashes>  (803) 
0

>  <NBS phar>  (803) 
0.22000000000000003

>  <NBS_non-phar>  (803) 
0.5257239061243394

>  <NBS>  (803) 
0.7457239061243395

>  <source_stage>  (803) 
scored

>  <source_iter>  (803) 
14

>  <source_parent_mol>  (803) 
3

>  <source_scenario>  (803) 
1 2 4 0 3 8 0 0 0 3 3 1 1 3

>  <source_rank_in_scored_call>  (803) 
0

>  <source_current_task>  (803) 
close_aromatic_ring

>  <scenario>  (803) 
1 2 4 0 3 8 0 0 0 3 3 1 1

>  <protected_ring_attachments>  (803) 
0,5,4,6|5,4,6;1,3,4,6|3,4,6;3,1,0,2|1,0,2;4,5,0,2|5,0,2

>  <current_task>  (803) 
no_task

>  <rotatable_bond_torsions>  (803) 
1,0,2,9;0,2,9,11;2,9,11,12;11,12,13,14

$$$$

     RDKit          3D

 18 20  0  0  0  0  0  0  0  0999 V2000
  -28.7550   -7.9000  -30.9310 C   0  0  0  0  0  0  0  0  0  0  0  0
  -28.0360   -7.3730  -31.9180 N   0  0  0  0  0  0  0  0  0  0  0  0
  -29.2610   -9.2580  -30.7080 N   0  0  0  0  0  0  0  0  0  0  0  0
  -27.8840   -6.0390  -31.7410 C   0  0  0  0  0  0  0  0  0  0  0  0
  -28.5500   -5.7290  -30.5780 C   0  0  0  0  0  0  0  0  0  0  0  0
  -29.0620   -6.8780  -30.1130 N   0  0  0  0  0  0  0  0  0  0  0  0
  -28.3930   -4.4080  -30.4150 N   0  0  0  0  0  0  0  0  0  0  0  0
  -27.6990   -3.8860  -31.3610 O   0  0  0  0  0  0  0  0  0  0  0  0
  -27.3700   -4.8430  -32.1860 C   0  0  0  0  0  0  0  0  0  0  0  0
  -29.5860   -9.7210  -29.4300 C   0  0  0  0  0  0  0  0  0  0  0  0
  -29.6330   -9.0720  -28.3990 O   0  0  0  0  0  0  0  0  0  0  0  0
  -29.8990  -11.2900  -29.3230 C   0  0  0  0  0  0  0  0  0  0  0  0
  -31.2100  -11.6940  -29.5280 C   0  0  0  0  0  0  0  0  0  0  0  0
  -28.9040  -12.2150  -28.9900 C   0  0  0  0  0  0  0  0  0  0  0  0
  -29.3090  -13.5290  -28.8820 C   0  0  0  0  0  0  0  0  0  0  0  0
  -31.5770  -12.9850  -29.4150 N   0  0  0  0  0  0  0  0  0  0  0  0
  -30.6210  -13.8990  -29.0920 C   0  0  0  0  0  0  0  0  0  0  0  0
  -27.4720  -11.8000  -28.7640 C   0  0  0  0  0  0  0  0  0  0  0  0
  1  2  2  0
  1  3  1  0
  1  6  1  0
  2  4  1  0
  3 10  1  0
  4  9  2  0
  4  5  1  0
  5  7  2  0
  5  6  1  0
  7  8  1  0
  8  9  1  0
 10 12  1  0
 10 11  2  0
 12 13  2  0
 12 14  1  0
 13 16  1  0
 14 15  2  0
 14 18  1  0
 15 17  1  0
 16 17  2  0
M  END
>  <name>  (804) 
Car Nac Nd0 Car Car Nd0 Nac O_a Car Cs2 .=O Car Car Car Car Nac Car Cs3

>  <indices>  (804) 
[0, 1, 2]

>  <tasks>  (804) 
probe_placing close_aromatic_ring close_aromatic_ring close_aromatic_ring ring_built fix_Car close_aromatic_ring close_aromatic_ring build_to_Nd0 build_DB_to_Cs2 build_SB_to_Cs2 close_aromatic_ring close_aromatic_ring close_aromatic_ring close_aromatic_ring close_aromatic_ring

>  <prot_clashes>  (804) 
4

>  <NBS phar>  (804) 
0.12

>  <NBS_non-phar>  (804) 
0.3825598292880588

>  <NBS>  (804) 
0.5025598292880589

>  <source_stage>  (804) 
scored

>  <source_iter>  (804) 
15

>  <source_parent_mol>  (804) 
0

>  <source_scenario>  (804) 
1 2 4 0 3 8 0 0 0 3 8 3 2 1 0

>  <source_rank_in_scored_call>  (804) 
0

>  <source_current_task>  (804) 
build_orthosubstituent_to_rotated_amide

>  <scenario>  (804) 
1 2 4 0 3 8 0 0 0 3 8 3 2 1

>  <protected_ring_attachments>  (804) 
0,5,4,6|5,4,6;1,3,4,6|3,4,6;3,1,0,2|1,0,2;4,5,0,2|5,0,2

>  <current_task>  (804) 
no_task

>  <rotatable_bond_torsions>  (804) 
1,0,2,9;0,2,9,11;2,9,11,12

>  <flag ortho>  (804) 


$$$$

     RDKit          3D

 17 19  0  0  0  0  0  0  0  0999 V2000
  -28.3250   -7.5120  -31.4550 C   0  0  0  0  0  0  0  0  0  0  0  0
  -27.6870   -6.6840  -32.2790 N   0  0  0  0  0  0  0  0  0  0  0  0
  -28.6080   -8.9480  -31.5380 N   0  0  0  0  0  0  0  0  0  0  0  0
  -27.7590   -5.4100  -31.8300 C   0  0  0  0  0  0  0  0  0  0  0  0
  -28.4850   -5.4560  -30.6630 C   0  0  0  0  0  0  0  0  0  0  0  0
  -28.8110   -6.7440  -30.4660 N   0  0  0  0  0  0  0  0  0  0  0  0
  -28.5490   -4.1920  -30.2270 N   0  0  0  0  0  0  0  0  0  0  0  0
  -27.9360   -3.3820  -31.0150 O   0  0  0  0  0  0  0  0  0  0  0  0
  -27.4400   -4.0810  -31.9980 C   0  0  0  0  0  0  0  0  0  0  0  0
  -28.8750   -9.7120  -30.4000 C   0  0  0  0  0  0  0  0  0  0  0  0
  -29.0460   -9.3050  -29.2610 O   0  0  0  0  0  0  0  0  0  0  0  0
  -29.1290  -11.2480  -30.7280 C   0  0  0  0  0  0  0  0  0  0  0  0
  -29.8320  -12.0540  -29.8380 C   0  0  0  0  0  0  0  0  0  0  0  0
  -29.8210  -13.4350  -30.0200 C   0  0  0  0  0  0  0  0  0  0  0  0
  -29.1180  -14.0180  -31.0770 C   0  0  0  0  0  0  0  0  0  0  0  0
  -28.4380  -13.1760  -31.9310 C   0  0  0  0  0  0  0  0  0  0  0  0
  -28.4170  -11.8060  -31.7960 C   0  0  0  0  0  0  0  0  0  0  0  0
  1  2  2  0
  1  3  1  0
  1  6  1  0
  2  4  1  0
  3 10  1  0
  4  9  2  0
  4  5  1  0
  5  6  1  0
  5  7  2  0
  7  8  1  0
  8  9  1  0
 10 12  1  0
 10 11  2  0
 12 17  1  0
 12 13  2  0
 13 14  1  0
 14 15  2  0
 15 16  1  0
 16 17  2  0
M  END
>  <name>  (805) 
Car Nac Nd0 Car Car Nd0 Nac O_a Car Cs2 .=O Car Car Car Car Car Car

>  <indices>  (805) 
[0, 1, 2]

>  <tasks>  (805) 
probe_placing close_aromatic_ring close_aromatic_ring close_aromatic_ring ring_built fix_Car close_aromatic_ring close_aromatic_ring build_to_Nd0 build_DB_to_Cs2 build_SB_to_Cs2 close_aromatic_ring close_aromatic_ring close_aromatic_ring close_aromatic_ring

>  <prot_clashes>  (805) 
1

>  <NBS phar>  (805) 
0.2

>  <NBS_non-phar>  (805) 
0.449185287251192

>  <NBS>  (805) 
0.6491852872511921

>  <source_stage>  (805) 
scored

>  <source_iter>  (805) 
14

>  <source_parent_mol>  (805) 
3

>  <source_scenario>  (805) 
1 2 4 0 3 8 0 0 0 3 9 2 0 3

>  <source_rank_in_scored_call>  (805) 
0

>  <source_current_task>  (805) 
close_aromatic_ring

>  <scenario>  (805) 
1 2 4 0 3 8 0 0 0 3 9 2 0

>  <protected_ring_attachments>  (805) 
0,5,4,6|5,4,6;1,3,4,6|3,4,6;3,1,0,2|1,0,2;4,5,0,2|5,0,2

>  <current_task>  (805) 
no_task

>  <rotatable_bond_torsions>  (805) 
1,0,2,9;0,2,9,11;2,9,11,12;11,12,13,14

$$$$

     RDKit          3D

 16 18  0  0  0  0  0  0  0  0999 V2000
  -27.9490   -7.7120  -30.9580 C   0  0  0  0  0  0  0  0  0  0  0  0
  -27.5090   -6.6850  -31.6800 N   0  0  0  0  0  0  0  0  0  0  0  0
  -27.7940   -9.1590  -31.1210 N   0  0  0  0  0  0  0  0  0  0  0  0
  -27.9870   -5.5180  -31.1950 C   0  0  0  0  0  0  0  0  0  0  0  0
  -28.7690   -5.8400  -30.1080 C   0  0  0  0  0  0  0  0  0  0  0  0
  -28.7220   -7.1790  -29.9930 N   0  0  0  0  0  0  0  0  0  0  0  0
  -29.2360   -4.6810  -29.6370 N   0  0  0  0  0  0  0  0  0  0  0  0
  -28.8160   -3.6810  -30.3250 O   0  0  0  0  0  0  0  0  0  0  0  0
  -28.0560   -4.1420  -31.2810 C   0  0  0  0  0  0  0  0  0  0  0  0
  -28.3420  -10.1340  -30.3690 C   0  0  0  0  0  0  0  0  0  0  0  0
  -29.3770  -10.9260  -30.8740 C   0  0  0  0  0  0  0  0  0  0  0  0
  -29.8520  -11.9590  -30.0890 C   0  0  0  0  0  0  0  0  0  0  0  0
  -29.3440  -12.2300  -28.8340 C   0  0  0  0  0  0  0  0  0  0  0  0
  -28.3240  -11.4500  -28.3370 C   0  0  0  0  0  0  0  0  0  0  0  0
  -27.8400  -10.4210  -29.1010 C   0  0  0  0  0  0  0  0  0  0  0  0
  -29.9070  -10.6840  -32.1200 O   0  0  0  0  0  0  0  0  0  0  0  0
  1  2  2  0
  1  3  1  0
  1  6  1  0
  2  4  1  0
  3 10  1  0
  4  9  2  0
  4  5  1  0
  5  6  1  0
  5  7  2  0
  7  8  1  0
  8  9  1  0
 10 11  2  0
 10 15  1  0
 11 16  1  0
 11 12  1  0
 12 13  2  0
 13 14  1  0
 14 15  2  0
M  CHG  1  16  -1
M  END
>  <name>  (806) 
Car Nac Nd0 Car Car Nd0 Nac O_a Car Car Car Car Car Car Car .=O

>  <indices>  (806) 
[0, 1, 2]

>  <tasks>  (806) 
probe_placing close_aromatic_ring close_aromatic_ring close_aromatic_ring ring_built fix_Car close_aromatic_ring close_aromatic_ring build_to_Nd0 close_aromatic_ring close_aromatic_ring close_aromatic_ring close_aromatic_ring close_aromatic_ring

>  <prot_clashes>  (806) 
2

>  <NBS phar>  (806) 
0.22000000000000003

>  <NBS_non-phar>  (806) 
0.5792142152786255

>  <NBS>  (806) 
0.7992142152786255

>  <source_stage>  (806) 
scored

>  <source_iter>  (806) 
13

>  <source_parent_mol>  (806) 
0

>  <source_scenario>  (806) 
1 2 4 0 3 8 0 1 0 1 1 0 0

>  <source_rank_in_scored_call>  (806) 
0

>  <source_current_task>  (806) 
build_orthosubstituent_to_rotated_aniline_Nd0

>  <scenario>  (806) 
1 2 4 0 3 8 0 1 0 1 1 0

>  <protected_ring_attachments>  (806) 
0,5,4,6|5,4,6;1,3,4,6|3,4,6;3,1,0,2|1,0,2;4,5,0,2|5,0,2;11,10,9,2|10,9,2;13,14,9,2|14,9,2

>  <current_task>  (806) 
no_task

>  <rotatable_bond_torsions>  (806) 
1,0,2,9;0,2,9,10

>  <rotated_aniline_Nd0_dihedral>  (806) 
108.09

>  <rotated_aniline_Nd0_tolerance>  (806) 
60.0

>  <rotated_aniline_Nd0_context>  (806) 
diarylamine

>  <rotated_aniline_Nd0_substituent_idx>  (806) 
0

>  <rotated_aniline_Nd0_ring>  (806) 
10 11 12 13 14 9

>  <flag ortho>  (806) 


$$$$

     RDKit          3D

 16 18  0  0  0  0  0  0  0  0999 V2000
  -27.9310   -7.4910  -30.9330 C   0  0  0  0  0  0  0  0  0  0  0  0
  -27.3160   -6.5240  -31.6080 N   0  0  0  0  0  0  0  0  0  0  0  0
  -27.8480   -8.9510  -31.0220 N   0  0  0  0  0  0  0  0  0  0  0  0
  -27.7870   -5.3110  -31.2440 C   0  0  0  0  0  0  0  0  0  0  0  0
  -28.7500   -5.5400  -30.2870 C   0  0  0  0  0  0  0  0  0  0  0  0
  -28.8110   -6.8730  -30.1220 N   0  0  0  0  0  0  0  0  0  0  0  0
  -29.2090   -4.3360  -29.9340 N   0  0  0  0  0  0  0  0  0  0  0  0
  -28.6200   -3.3920  -30.5790 O   0  0  0  0  0  0  0  0  0  0  0  0
  -27.7510   -3.9380  -31.3840 C   0  0  0  0  0  0  0  0  0  0  0  0
  -28.5710   -9.8580  -30.3370 C   0  0  0  0  0  0  0  0  0  0  0  0
  -29.5620  -10.6080  -30.9760 C   0  0  0  0  0  0  0  0  0  0  0  0
  -30.2220  -11.5760  -30.2450 C   0  0  0  0  0  0  0  0  0  0  0  0
  -29.9390  -11.8240  -28.9160 C   0  0  0  0  0  0  0  0  0  0  0  0
  -28.9620  -11.0860  -28.2870 C   0  0  0  0  0  0  0  0  0  0  0  0
  -28.2960  -10.1210  -28.9960 C   0  0  0  0  0  0  0  0  0  0  0  0
  -27.2280   -9.3140  -28.3000 C   0  0  0  0  0  0  0  0  0  0  0  0
  1  2  2  0
  1  3  1  0
  1  6  1  0
  2  4  1  0
  3 10  1  0
  4  9  2  0
  4  5  1  0
  5  6  1  0
  5  7  2  0
  7  8  1  0
  8  9  1  0
 10 11  2  0
 10 15  1  0
 11 12  1  0
 12 13  2  0
 13 14  1  0
 14 15  2  0
 15 16  1  0
M  END
>  <name>  (807) 
Car Nac Nd0 Car Car Nd0 Nac O_a Car Car Car Car Car Car Car Cs3

>  <indices>  (807) 
[0, 1, 2]

>  <tasks>  (807) 
probe_placing close_aromatic_ring close_aromatic_ring close_aromatic_ring ring_built fix_Car close_aromatic_ring close_aromatic_ring build_to_Nd0 close_aromatic_ring close_aromatic_ring close_aromatic_ring close_aromatic_ring close_aromatic_ring

>  <prot_clashes>  (807) 
3

>  <NBS phar>  (807) 
0.12

>  <NBS_non-phar>  (807) 
0.6059521436691284

>  <NBS>  (807) 
0.7259521436691284

>  <source_stage>  (807) 
scored

>  <source_iter>  (807) 
13

>  <source_parent_mol>  (807) 
0

>  <source_scenario>  (807) 
1 2 4 0 3 8 0 1 0 1 1 0 0

>  <source_rank_in_scored_call>  (807) 
9

>  <source_current_task>  (807) 
build_orthosubstituent_to_rotated_aniline_Nd0

>  <scenario>  (807) 
1 2 4 0 3 8 0 1 0 1 1 0

>  <protected_ring_attachments>  (807) 
0,5,4,6|5,4,6;1,3,4,6|3,4,6;3,1,0,2|1,0,2;4,5,0,2|5,0,2;11,10,9,2|10,9,2;13,14,9,2|14,9,2

>  <current_task>  (807) 
no_task

>  <rotatable_bond_torsions>  (807) 
1,0,2,9;0,2,9,10

>  <rotated_aniline_Nd0_dihedral>  (807) 
108.09

>  <rotated_aniline_Nd0_tolerance>  (807) 
60.0

>  <rotated_aniline_Nd0_context>  (807) 
diarylamine

>  <rotated_aniline_Nd0_substituent_idx>  (807) 
0

>  <rotated_aniline_Nd0_ring>  (807) 
10 11 12 13 14 9

>  <flag ortho>  (807) 


$$$$

     RDKit          3D

 16 18  0  0  0  0  0  0  0  0999 V2000
  -28.0010   -7.4640  -30.9400 C   0  0  0  0  0  0  0  0  0  0  0  0
  -27.5030   -6.4320  -31.6150 N   0  0  0  0  0  0  0  0  0  0  0  0
  -27.8670   -8.9100  -31.1270 N   0  0  0  0  0  0  0  0  0  0  0  0
  -27.9820   -5.2650  -31.1300 C   0  0  0  0  0  0  0  0  0  0  0  0
  -28.8260   -5.5940  -30.0920 C   0  0  0  0  0  0  0  0  0  0  0  0
  -28.8130   -6.9350  -30.0040 N   0  0  0  0  0  0  0  0  0  0  0  0
  -29.2940   -4.4350  -29.6200 N   0  0  0  0  0  0  0  0  0  0  0  0
  -28.8180   -3.4290  -30.2630 O   0  0  0  0  0  0  0  0  0  0  0  0
  -28.0180   -3.8860  -31.1880 C   0  0  0  0  0  0  0  0  0  0  0  0
  -28.4730   -9.8890  -30.4260 C   0  0  0  0  0  0  0  0  0  0  0  0
  -29.4960  -10.6480  -31.0030 C   0  0  0  0  0  0  0  0  0  0  0  0
  -30.0320  -11.6860  -30.2670 C   0  0  0  0  0  0  0  0  0  0  0  0
  -29.5970  -11.9960  -28.9930 C   0  0  0  0  0  0  0  0  0  0  0  0
  -28.5890  -11.2480  -28.4270 C   0  0  0  0  0  0  0  0  0  0  0  0
  -28.0450  -10.2140  -29.1410 C   0  0  0  0  0  0  0  0  0  0  0  0
  -27.0390   -9.4700  -28.5690 O   0  0  0  0  0  0  0  0  0  0  0  0
  1  2  2  0
  1  3  1  0
  1  6  1  0
  2  4  1  0
  3 10  1  0
  4  9  2  0
  4  5  1  0
  5  6  1  0
  5  7  2  0
  7  8  1  0
  8  9  1  0
 10 11  2  0
 10 15  1  0
 11 12  1  0
 12 13  2  0
 13 14  1  0
 14 15  2  0
 15 16  1  0
M  CHG  1  16  -1
M  END
>  <name>  (808) 
Car Nac Nd0 Car Car Nd0 Nac O_a Car Car Car Car Car Car Car .=O

>  <indices>  (808) 
[0, 1, 2]

>  <tasks>  (808) 
probe_placing close_aromatic_ring close_aromatic_ring close_aromatic_ring ring_built fix_Car close_aromatic_ring close_aromatic_ring build_to_Nd0 close_aromatic_ring close_aromatic_ring close_aromatic_ring close_aromatic_ring close_aromatic_ring

>  <prot_clashes>  (808) 
2

>  <NBS phar>  (808) 
0.12

>  <NBS_non-phar>  (808) 
0.5857683420181274

>  <NBS>  (808) 
0.7057683420181274

>  <source_stage>  (808) 
scored

>  <source_iter>  (808) 
13

>  <source_parent_mol>  (808) 
0

>  <source_scenario>  (808) 
1 2 4 0 3 8 0 1 0 1 1 0 0

>  <source_rank_in_scored_call>  (808) 
13

>  <source_current_task>  (808) 
build_orthosubstituent_to_rotated_aniline_Nd0

>  <scenario>  (808) 
1 2 4 0 3 8 0 1 0 1 1 0

>  <protected_ring_attachments>  (808) 
0,5,4,6|5,4,6;1,3,4,6|3,4,6;3,1,0,2|1,0,2;4,5,0,2|5,0,2;11,10,9,2|10,9,2;13,14,9,2|14,9,2

>  <current_task>  (808) 
no_task

>  <rotatable_bond_torsions>  (808) 
1,0,2,9;0,2,9,10

>  <rotated_aniline_Nd0_dihedral>  (808) 
108.09

>  <rotated_aniline_Nd0_tolerance>  (808) 
60.0

>  <rotated_aniline_Nd0_context>  (808) 
diarylamine

>  <rotated_aniline_Nd0_substituent_idx>  (808) 
0

>  <rotated_aniline_Nd0_ring>  (808) 
10 11 12 13 14 9

>  <flag ortho>  (808) 


$$$$

     RDKit          3D

 16 18  0  0  0  0  0  0  0  0999 V2000
  -27.6890   -7.4730  -30.6810 C   0  0  0  0  0  0  0  0  0  0  0  0
  -27.2250   -6.5130  -31.4750 N   0  0  0  0  0  0  0  0  0  0  0  0
  -27.5040   -8.9260  -30.6930 N   0  0  0  0  0  0  0  0  0  0  0  0
  -27.7480   -5.3140  -31.1340 C   0  0  0  0  0  0  0  0  0  0  0  0
  -28.5850   -5.5460  -30.0650 C   0  0  0  0  0  0  0  0  0  0  0  0
  -28.5240   -6.8660  -29.8160 N   0  0  0  0  0  0  0  0  0  0  0  0
  -29.0950   -4.3560  -29.7350 N   0  0  0  0  0  0  0  0  0  0  0  0
  -28.6520   -3.4190  -30.4950 O   0  0  0  0  0  0  0  0  0  0  0  0
  -27.8330   -3.9550  -31.3570 C   0  0  0  0  0  0  0  0  0  0  0  0
  -28.0780   -9.8350  -29.8800 C   0  0  0  0  0  0  0  0  0  0  0  0
  -29.0700  -10.6930  -30.3620 C   0  0  0  0  0  0  0  0  0  0  0  0
  -29.5730  -11.6550  -29.5070 C   0  0  0  0  0  0  0  0  0  0  0  0
  -29.1330  -11.7930  -28.2050 C   0  0  0  0  0  0  0  0  0  0  0  0
  -28.1560  -10.9470  -27.7320 C   0  0  0  0  0  0  0  0  0  0  0  0
  -27.6450   -9.9870  -28.5650 C   0  0  0  0  0  0  0  0  0  0  0  0
  -29.5790  -10.5730  -31.7770 C   0  0  0  0  0  0  0  0  0  0  0  0
  1  2  2  0
  1  3  1  0
  1  6  1  0
  2  4  1  0
  3 10  1  0
  4  9  2  0
  4  5  1  0
  5  6  1  0
  5  7  2  0
  7  8  1  0
  8  9  1  0
 10 11  2  0
 10 15  1  0
 11 16  1  0
 11 12  1  0
 12 13  2  0
 13 14  1  0
 14 15  2  0
M  END
>  <name>  (809) 
Car Nac Nd0 Car Car Nd0 Nac O_a Car Car Car Car Car Car Car Cs3

>  <indices>  (809) 
[0, 1, 2]

>  <tasks>  (809) 
probe_placing close_aromatic_ring close_aromatic_ring close_aromatic_ring ring_built fix_Car close_aromatic_ring close_aromatic_ring build_to_Nd0 close_aromatic_ring close_aromatic_ring close_aromatic_ring close_aromatic_ring close_aromatic_ring

>  <prot_clashes>  (809) 
2

>  <NBS phar>  (809) 
0.13999999999999999

>  <NBS_non-phar>  (809) 
0.5233579874038696

>  <NBS>  (809) 
0.6633579874038696

>  <source_stage>  (809) 
scored

>  <source_iter>  (809) 
13

>  <source_parent_mol>  (809) 
0

>  <source_scenario>  (809) 
1 2 4 0 3 8 0 1 0 1 1 0 0

>  <source_rank_in_scored_call>  (809) 
20

>  <source_current_task>  (809) 
build_orthosubstituent_to_rotated_aniline_Nd0

>  <scenario>  (809) 
1 2 4 0 3 8 0 1 0 1 1 0

>  <protected_ring_attachments>  (809) 
0,5,4,6|5,4,6;1,3,4,6|3,4,6;3,1,0,2|1,0,2;4,5,0,2|5,0,2;11,10,9,2|10,9,2;13,14,9,2|14,9,2

>  <current_task>  (809) 
no_task

>  <rotatable_bond_torsions>  (809) 
1,0,2,9;0,2,9,10

>  <rotated_aniline_Nd0_dihedral>  (809) 
108.09

>  <rotated_aniline_Nd0_tolerance>  (809) 
60.0

>  <rotated_aniline_Nd0_context>  (809) 
diarylamine

>  <rotated_aniline_Nd0_substituent_idx>  (809) 
0

>  <rotated_aniline_Nd0_ring>  (809) 
10 11 12 13 14 9

>  <flag ortho>  (809) 


$$$$

     RDKit          3D

 17 19  0  0  0  0  0  0  0  0999 V2000
  -27.9810   -7.7360  -30.9420 C   0  0  0  0  0  0  0  0  0  0  0  0
  -27.5310   -6.7060  -31.6540 N   0  0  0  0  0  0  0  0  0  0  0  0
  -27.8330   -9.1820  -31.1150 N   0  0  0  0  0  0  0  0  0  0  0  0
  -28.0050   -5.5400  -31.1630 C   0  0  0  0  0  0  0  0  0  0  0  0
  -28.7950   -5.8660  -30.0830 C   0  0  0  0  0  0  0  0  0  0  0  0
  -28.7560   -7.2060  -29.9770 N   0  0  0  0  0  0  0  0  0  0  0  0
  -29.2580   -4.7070  -29.6060 N   0  0  0  0  0  0  0  0  0  0  0  0
  -28.8290   -3.7050  -30.2840 O   0  0  0  0  0  0  0  0  0  0  0  0
  -28.0660   -4.1630  -31.2390 C   0  0  0  0  0  0  0  0  0  0  0  0
  -28.3910  -10.1600  -30.3730 C   0  0  0  0  0  0  0  0  0  0  0  0
  -29.4270  -10.9420  -30.8900 C   0  0  0  0  0  0  0  0  0  0  0  0
  -29.9130  -11.9780  -30.1150 C   0  0  0  0  0  0  0  0  0  0  0  0
  -29.4130  -12.2610  -28.8590 C   0  0  0  0  0  0  0  0  0  0  0  0
  -28.3910  -11.4910  -28.3510 C   0  0  0  0  0  0  0  0  0  0  0  0
  -27.8970  -10.4590  -29.1050 C   0  0  0  0  0  0  0  0  0  0  0  0
  -29.9490  -10.6880  -32.1370 O   0  0  0  0  0  0  0  0  0  0  0  0
  -27.8230  -11.7790  -26.9830 C   0  0  0  0  0  0  0  0  0  0  0  0
  1  2  2  0
  1  3  1  0
  1  6  1  0
  2  4  1  0
  3 10  1  0
  4  9  2  0
  4  5  1  0
  5  6  1  0
  5  7  2  0
  7  8  1  0
  8  9  1  0
 10 11  2  0
 10 15  1  0
 11 16  1  0
 11 12  1  0
 12 13  2  0
 13 14  1  0
 14 15  2  0
 14 17  1  0
M  CHG  1  16  -1
M  END
>  <name>  (810) 
Car Nac Nd0 Car Car Nd0 Nac O_a Car Car Car Car Car Car Car .=O Cs3

>  <indices>  (810) 
[0, 1, 2]

>  <tasks>  (810) 
probe_placing close_aromatic_ring close_aromatic_ring close_aromatic_ring ring_built fix_Car close_aromatic_ring close_aromatic_ring build_to_Nd0 close_aromatic_ring close_aromatic_ring close_aromatic_ring close_aromatic_ring close_aromatic_ring build_orthosubstituent_to_rotated_aniline_Nd0

>  <prot_clashes>  (810) 
1

>  <NBS phar>  (810) 
0.22000000000000003

>  <NBS_non-phar>  (810) 
0.5759733985452091

>  <NBS>  (810) 
0.7959733985452091

>  <source_stage>  (810) 
scored

>  <source_iter>  (810) 
14

>  <source_parent_mol>  (810) 
0

>  <source_scenario>  (810) 
1 2 4 0 3 8 0 1 0 1 1 0 0 0

>  <source_rank_in_scored_call>  (810) 
3

>  <source_current_task>  (810) 
no_task

>  <scenario>  (810) 
1 2 4 0 3 8 0 1 0 1 1 0 0

>  <protected_ring_attachments>  (810) 
0,5,4,6|5,4,6;1,3,4,6|3,4,6;3,1,0,2|1,0,2;4,5,0,2|5,0,2;11,10,9,2|10,9,2;13,14,9,2|14,9,2

>  <current_task>  (810) 
no_task

>  <rotatable_bond_torsions>  (810) 
1,0,2,9;0,2,9,10

>  <rotated_aniline_Nd0_dihedral>  (810) 
108.09

>  <rotated_aniline_Nd0_tolerance>  (810) 
60.0

>  <rotated_aniline_Nd0_context>  (810) 
diarylamine

>  <rotated_aniline_Nd0_substituent_idx>  (810) 
0

>  <rotated_aniline_Nd0_ring>  (810) 
10 11 12 13 14 9

>  <flag ortho>  (810) 


$$$$

     RDKit          3D

 17 19  0  0  0  0  0  0  0  0999 V2000
  -27.9270   -7.7820  -30.7510 C   0  0  0  0  0  0  0  0  0  0  0  0
  -27.5360   -6.8070  -31.5670 N   0  0  0  0  0  0  0  0  0  0  0  0
  -27.7750   -9.2360  -30.8230 N   0  0  0  0  0  0  0  0  0  0  0  0
  -27.9890   -5.6090  -31.1350 C   0  0  0  0  0  0  0  0  0  0  0  0
  -28.7030   -5.8560  -29.9840 C   0  0  0  0  0  0  0  0  0  0  0  0
  -28.6430   -7.1840  -29.7800 N   0  0  0  0  0  0  0  0  0  0  0  0
  -29.1460   -4.6680  -29.5660 N   0  0  0  0  0  0  0  0  0  0  0  0
  -28.7730   -3.7170  -30.3450 O   0  0  0  0  0  0  0  0  0  0  0  0
  -28.0700   -4.2420  -31.3120 C   0  0  0  0  0  0  0  0  0  0  0  0
  -28.2720  -10.1580  -29.9740 C   0  0  0  0  0  0  0  0  0  0  0  0
  -29.3320  -10.9830  -30.3600 C   0  0  0  0  0  0  0  0  0  0  0  0
  -29.7540  -11.9600  -29.4790 C   0  0  0  0  0  0  0  0  0  0  0  0
  -29.1700  -12.1430  -28.2410 C   0  0  0  0  0  0  0  0  0  0  0  0
  -28.1260  -11.3300  -27.8610 C   0  0  0  0  0  0  0  0  0  0  0  0
  -27.6940  -10.3560  -28.7220 C   0  0  0  0  0  0  0  0  0  0  0  0
  -29.9370  -10.8280  -31.5860 O   0  0  0  0  0  0  0  0  0  0  0  0
  -30.8950  -12.8590  -29.8840 C   0  0  0  0  0  0  0  0  0  0  0  0
  1  2  2  0
  1  3  1  0
  1  6  1  0
  2  4  1  0
  3 10  1  0
  4  9  2  0
  4  5  1  0
  5  6  1  0
  5  7  2  0
  7  8  1  0
  8  9  1  0
 10 11  2  0
 10 15  1  0
 11 16  1  0
 11 12  1  0
 12 17  1  0
 12 13  2  0
 13 14  1  0
 14 15  2  0
M  CHG  1  16  -1
M  END
>  <name>  (811) 
Car Nac Nd0 Car Car Nd0 Nac O_a Car Car Car Car Car Car Car .=O Cs3

>  <indices>  (811) 
[0, 1, 2]

>  <tasks>  (811) 
probe_placing close_aromatic_ring close_aromatic_ring close_aromatic_ring ring_built fix_Car close_aromatic_ring close_aromatic_ring build_to_Nd0 close_aromatic_ring close_aromatic_ring close_aromatic_ring close_aromatic_ring close_aromatic_ring build_orthosubstituent_to_rotated_aniline_Nd0

>  <prot_clashes>  (811) 
2

>  <NBS phar>  (811) 
0.16

>  <NBS_non-phar>  (811) 
0.5706400029799518

>  <NBS>  (811) 
0.7306400029799518

>  <source_stage>  (811) 
scored

>  <source_iter>  (811) 
14

>  <source_parent_mol>  (811) 
0

>  <source_scenario>  (811) 
1 2 4 0 3 8 0 1 0 1 1 0 0 0

>  <source_rank_in_scored_call>  (811) 
21

>  <source_current_task>  (811) 
no_task

>  <scenario>  (811) 
1 2 4 0 3 8 0 1 0 1 1 0 0

>  <protected_ring_attachments>  (811) 
0,5,4,6|5,4,6;1,3,4,6|3,4,6;3,1,0,2|1,0,2;4,5,0,2|5,0,2;11,10,9,2|10,9,2;13,14,9,2|14,9,2

>  <current_task>  (811) 
no_task

>  <rotatable_bond_torsions>  (811) 
1,0,2,9;0,2,9,10

>  <rotated_aniline_Nd0_dihedral>  (811) 
108.09

>  <rotated_aniline_Nd0_tolerance>  (811) 
60.0

>  <rotated_aniline_Nd0_context>  (811) 
diarylamine

>  <rotated_aniline_Nd0_substituent_idx>  (811) 
0

>  <rotated_aniline_Nd0_ring>  (811) 
10 11 12 13 14 9

>  <flag ortho>  (811) 


$$$$

     RDKit          3D

 17 19  0  0  0  0  0  0  0  0999 V2000
  -27.9920   -7.7520  -30.9310 C   0  0  0  0  0  0  0  0  0  0  0  0
  -27.5380   -6.7220  -31.6400 N   0  0  0  0  0  0  0  0  0  0  0  0
  -27.8450   -9.1980  -31.1050 N   0  0  0  0  0  0  0  0  0  0  0  0
  -28.0130   -5.5560  -31.1490 C   0  0  0  0  0  0  0  0  0  0  0  0
  -28.8070   -5.8820  -30.0720 C   0  0  0  0  0  0  0  0  0  0  0  0
  -28.7700   -7.2220  -29.9680 N   0  0  0  0  0  0  0  0  0  0  0  0
  -29.2700   -4.7240  -29.5950 N   0  0  0  0  0  0  0  0  0  0  0  0
  -28.8370   -3.7210  -30.2700 O   0  0  0  0  0  0  0  0  0  0  0  0
  -28.0720   -4.1790  -31.2230 C   0  0  0  0  0  0  0  0  0  0  0  0
  -28.4060  -10.1760  -30.3660 C   0  0  0  0  0  0  0  0  0  0  0  0
  -29.4420  -10.9570  -30.8880 C   0  0  0  0  0  0  0  0  0  0  0  0
  -29.9310  -11.9930  -30.1160 C   0  0  0  0  0  0  0  0  0  0  0  0
  -29.4370  -12.2780  -28.8590 C   0  0  0  0  0  0  0  0  0  0  0  0
  -28.4160  -11.5100  -28.3460 C   0  0  0  0  0  0  0  0  0  0  0  0
  -27.9180  -10.4780  -29.0960 C   0  0  0  0  0  0  0  0  0  0  0  0
  -29.9590  -10.7000  -32.1360 O   0  0  0  0  0  0  0  0  0  0  0  0
  -30.0090  -13.4210  -28.0560 C   0  0  0  0  0  0  0  0  0  0  0  0
  1  2  2  0
  1  3  1  0
  1  6  1  0
  2  4  1  0
  3 10  1  0
  4  9  2  0
  4  5  1  0
  5  6  1  0
  5  7  2  0
  7  8  1  0
  8  9  1  0
 10 11  2  0
 10 15  1  0
 11 16  1  0
 11 12  1  0
 12 13  2  0
 13 14  1  0
 13 17  1  0
 14 15  2  0
M  CHG  1  16  -1
M  END
>  <name>  (812) 
Car Nac Nd0 Car Car Nd0 Nac O_a Car Car Car Car Car Car Car .=O Cs3

>  <indices>  (812) 
[0, 1, 2]

>  <tasks>  (812) 
probe_placing close_aromatic_ring close_aromatic_ring close_aromatic_ring ring_built fix_Car close_aromatic_ring close_aromatic_ring build_to_Nd0 close_aromatic_ring close_aromatic_ring close_aromatic_ring close_aromatic_ring close_aromatic_ring build_orthosubstituent_to_rotated_aniline_Nd0

>  <prot_clashes>  (812) 
1

>  <NBS phar>  (812) 
0.2

>  <NBS_non-phar>  (812) 
0.5186252033009249

>  <NBS>  (812) 
0.7186252033009248

>  <source_stage>  (812) 
scored

>  <source_iter>  (812) 
14

>  <source_parent_mol>  (812) 
0

>  <source_scenario>  (812) 
1 2 4 0 3 8 0 1 0 1 1 0 0 0

>  <source_rank_in_scored_call>  (812) 
27

>  <source_current_task>  (812) 
no_task

>  <scenario>  (812) 
1 2 4 0 3 8 0 1 0 1 1 0 0

>  <protected_ring_attachments>  (812) 
0,5,4,6|5,4,6;1,3,4,6|3,4,6;3,1,0,2|1,0,2;4,5,0,2|5,0,2;11,10,9,2|10,9,2;13,14,9,2|14,9,2

>  <current_task>  (812) 
no_task

>  <rotatable_bond_torsions>  (812) 
1,0,2,9;0,2,9,10

>  <rotated_aniline_Nd0_dihedral>  (812) 
108.09

>  <rotated_aniline_Nd0_tolerance>  (812) 
60.0

>  <rotated_aniline_Nd0_context>  (812) 
diarylamine

>  <rotated_aniline_Nd0_substituent_idx>  (812) 
0

>  <rotated_aniline_Nd0_ring>  (812) 
10 11 12 13 14 9

>  <flag ortho>  (812) 


$$$$

     RDKit          3D

 17 19  0  0  0  0  0  0  0  0999 V2000
  -27.9410   -7.8010  -30.8220 C   0  0  0  0  0  0  0  0  0  0  0  0
  -27.3050   -6.8600  -31.5150 N   0  0  0  0  0  0  0  0  0  0  0  0
  -27.8650   -9.2630  -30.8590 N   0  0  0  0  0  0  0  0  0  0  0  0
  -27.7770   -5.6330  -31.2040 C   0  0  0  0  0  0  0  0  0  0  0  0
  -28.7630   -5.8240  -30.2610 C   0  0  0  0  0  0  0  0  0  0  0  0
  -28.8350   -7.1500  -30.0530 N   0  0  0  0  0  0  0  0  0  0  0  0
  -29.2220   -4.6060  -29.9610 N   0  0  0  0  0  0  0  0  0  0  0  0
  -28.6140   -3.6890  -30.6230 O   0  0  0  0  0  0  0  0  0  0  0  0
  -27.7290   -4.2660  -31.3900 C   0  0  0  0  0  0  0  0  0  0  0  0
  -28.6080  -10.1430  -30.1600 C   0  0  0  0  0  0  0  0  0  0  0  0
  -29.5900  -10.9080  -30.7950 C   0  0  0  0  0  0  0  0  0  0  0  0
  -30.2720  -11.8480  -30.0460 C   0  0  0  0  0  0  0  0  0  0  0  0
  -30.0190  -12.0510  -28.7040 C   0  0  0  0  0  0  0  0  0  0  0  0
  -29.0520  -11.2970  -28.0780 C   0  0  0  0  0  0  0  0  0  0  0  0
  -28.3650  -10.3610  -28.8050 C   0  0  0  0  0  0  0  0  0  0  0  0
  -29.8680  -10.7320  -32.1300 O   0  0  0  0  0  0  0  0  0  0  0  0
  -27.3070   -9.5350  -28.1140 C   0  0  0  0  0  0  0  0  0  0  0  0
  1  2  2  0
  1  3  1  0
  1  6  1  0
  2  4  1  0
  3 10  1  0
  4  9  2  0
  4  5  1  0
  5  6  1  0
  5  7  2  0
  7  8  1  0
  8  9  1  0
 10 11  2  0
 10 15  1  0
 11 16  1  0
 11 12  1  0
 12 13  2  0
 13 14  1  0
 14 15  2  0
 15 17  1  0
M  CHG  1  16  -1
M  END
>  <name>  (813) 
Car Nac Nd0 Car Car Nd0 Nac O_a Car Car Car Car Car Car Car .=O Cs3

>  <indices>  (813) 
[0, 1, 2]

>  <tasks>  (813) 
probe_placing close_aromatic_ring close_aromatic_ring close_aromatic_ring ring_built fix_Car close_aromatic_ring close_aromatic_ring build_to_Nd0 close_aromatic_ring close_aromatic_ring close_aromatic_ring close_aromatic_ring close_aromatic_ring build_orthosubstituent_to_rotated_aniline_Nd0

>  <prot_clashes>  (813) 
3

>  <NBS phar>  (813) 
0.1

>  <NBS_non-phar>  (813) 
0.5191818686092601

>  <NBS>  (813) 
0.61918186860926

>  <source_stage>  (813) 
scored

>  <source_iter>  (813) 
14

>  <source_parent_mol>  (813) 
0

>  <source_scenario>  (813) 
1 2 4 0 3 8 0 1 0 1 1 0 0 0

>  <source_rank_in_scored_call>  (813) 
63

>  <source_current_task>  (813) 
no_task

>  <scenario>  (813) 
1 2 4 0 3 8 0 1 0 1 1 0 0

>  <protected_ring_attachments>  (813) 
0,5,4,6|5,4,6;1,3,4,6|3,4,6;3,1,0,2|1,0,2;4,5,0,2|5,0,2;11,10,9,2|10,9,2;13,14,9,2|14,9,2

>  <current_task>  (813) 
no_task

>  <rotatable_bond_torsions>  (813) 
1,0,2,9;0,2,9,10

>  <rotated_aniline_Nd0_dihedral>  (813) 
108.09

>  <rotated_aniline_Nd0_tolerance>  (813) 
60.0

>  <rotated_aniline_Nd0_context>  (813) 
diarylamine

>  <rotated_aniline_Nd0_substituent_idx>  (813) 
0

>  <rotated_aniline_Nd0_ring>  (813) 
10 11 12 13 14 9

>  <flag ortho>  (813) 


$$$$

     RDKit          3D

 17 19  0  0  0  0  0  0  0  0999 V2000
  -27.9270   -7.4960  -30.9580 C   0  0  0  0  0  0  0  0  0  0  0  0
  -27.3210   -6.5260  -31.6350 N   0  0  0  0  0  0  0  0  0  0  0  0
  -27.8480   -8.9560  -31.0580 N   0  0  0  0  0  0  0  0  0  0  0  0
  -27.7850   -5.3150  -31.2570 C   0  0  0  0  0  0  0  0  0  0  0  0
  -28.7350   -5.5490  -30.2870 C   0  0  0  0  0  0  0  0  0  0  0  0
  -28.7950   -6.8830  -30.1310 N   0  0  0  0  0  0  0  0  0  0  0  0
  -29.1870   -4.3470  -29.9200 N   0  0  0  0  0  0  0  0  0  0  0  0
  -28.6060   -3.3990  -30.5670 O   0  0  0  0  0  0  0  0  0  0  0  0
  -27.7490   -3.9410  -31.3880 C   0  0  0  0  0  0  0  0  0  0  0  0
  -28.5620   -9.8670  -30.3690 C   0  0  0  0  0  0  0  0  0  0  0  0
  -29.5630  -10.6110  -30.9990 C   0  0  0  0  0  0  0  0  0  0  0  0
  -30.2130  -11.5830  -30.2650 C   0  0  0  0  0  0  0  0  0  0  0  0
  -29.9120  -11.8410  -28.9420 C   0  0  0  0  0  0  0  0  0  0  0  0
  -28.9250  -11.1080  -28.3220 C   0  0  0  0  0  0  0  0  0  0  0  0
  -28.2680  -10.1390  -29.0340 C   0  0  0  0  0  0  0  0  0  0  0  0
  -27.1890   -9.3380  -28.3480 C   0  0  0  0  0  0  0  0  0  0  0  0
  -27.3810   -8.8170  -27.0140 C   0  0  0  0  0  0  0  0  0  0  0  0
  1  2  2  0
  1  3  1  0
  1  6  1  0
  2  4  1  0
  3 10  1  0
  4  9  2  0
  4  5  1  0
  5  6  1  0
  5  7  2  0
  7  8  1  0
  8  9  1  0
 10 11  2  0
 10 15  1  0
 11 12  1  0
 12 13  2  0
 13 14  1  0
 14 15  2  0
 15 16  1  0
 16 17  1  0
M  END
>  <name>  (814) 
Car Nac Nd0 Car Car Nd0 Nac O_a Car Car Car Car Car Car Car Cs3 Cs3

>  <indices>  (814) 
[0, 1, 2]

>  <tasks>  (814) 
probe_placing close_aromatic_ring close_aromatic_ring close_aromatic_ring ring_built fix_Car close_aromatic_ring close_aromatic_ring build_to_Nd0 close_aromatic_ring close_aromatic_ring close_aromatic_ring close_aromatic_ring close_aromatic_ring build_orthosubstituent_to_rotated_aniline_Nd0

>  <prot_clashes>  (814) 
4

>  <NBS phar>  (814) 
0.13999999999999999

>  <NBS_non-phar>  (814) 
0.6604787602144129

>  <NBS>  (814) 
0.8004787602144129

>  <source_stage>  (814) 
scored

>  <source_iter>  (814) 
14

>  <source_parent_mol>  (814) 
9

>  <source_scenario>  (814) 
1 2 4 0 3 8 0 1 0 1 1 0 0 9

>  <source_rank_in_scored_call>  (814) 
3

>  <source_current_task>  (814) 
no_task

>  <scenario>  (814) 
1 2 4 0 3 8 0 1 0 1 1 0 0

>  <protected_ring_attachments>  (814) 
0,5,4,6|5,4,6;1,3,4,6|3,4,6;3,1,0,2|1,0,2;4,5,0,2|5,0,2;11,10,9,2|10,9,2;13,14,9,2|14,9,2

>  <current_task>  (814) 
no_task

>  <rotatable_bond_torsions>  (814) 
1,0,2,9;0,2,9,10

>  <rotated_aniline_Nd0_dihedral>  (814) 
108.09

>  <rotated_aniline_Nd0_tolerance>  (814) 
60.0

>  <rotated_aniline_Nd0_context>  (814) 
diarylamine

>  <rotated_aniline_Nd0_substituent_idx>  (814) 
0

>  <rotated_aniline_Nd0_ring>  (814) 
10 11 12 13 14 9

>  <flag ortho>  (814) 


$$$$

     RDKit          3D

 17 19  0  0  0  0  0  0  0  0999 V2000
  -27.9300   -7.5120  -30.9670 C   0  0  0  0  0  0  0  0  0  0  0  0
  -27.3280   -6.5380  -31.6440 N   0  0  0  0  0  0  0  0  0  0  0  0
  -27.8500   -8.9710  -31.0720 N   0  0  0  0  0  0  0  0  0  0  0  0
  -27.7910   -5.3290  -31.2600 C   0  0  0  0  0  0  0  0  0  0  0  0
  -28.7360   -5.5670  -30.2880 C   0  0  0  0  0  0  0  0  0  0  0  0
  -28.7950   -6.9010  -30.1340 N   0  0  0  0  0  0  0  0  0  0  0  0
  -29.1880   -4.3660  -29.9150 N   0  0  0  0  0  0  0  0  0  0  0  0
  -28.6110   -3.4160  -30.5620 O   0  0  0  0  0  0  0  0  0  0  0  0
  -27.7570   -3.9550  -31.3880 C   0  0  0  0  0  0  0  0  0  0  0  0
  -28.5600   -9.8840  -30.3820 C   0  0  0  0  0  0  0  0  0  0  0  0
  -29.5630  -10.6280  -31.0090 C   0  0  0  0  0  0  0  0  0  0  0  0
  -30.2100  -11.6030  -30.2750 C   0  0  0  0  0  0  0  0  0  0  0  0
  -29.9020  -11.8630  -28.9540 C   0  0  0  0  0  0  0  0  0  0  0  0
  -28.9130  -11.1310  -28.3370 C   0  0  0  0  0  0  0  0  0  0  0  0
  -28.2600  -10.1600  -29.0490 C   0  0  0  0  0  0  0  0  0  0  0  0
  -27.1790   -9.3600  -28.3650 C   0  0  0  0  0  0  0  0  0  0  0  0
  -27.5090   -7.9810  -27.8520 C   0  0  0  0  0  0  0  0  0  0  0  0
  1  2  2  0
  1  3  1  0
  1  6  1  0
  2  4  1  0
  3 10  1  0
  4  9  2  0
  4  5  1  0
  5  6  1  0
  5  7  2  0
  7  8  1  0
  8  9  1  0
 10 11  2  0
 10 15  1  0
 11 12  1  0
 12 13  2  0
 13 14  1  0
 14 15  2  0
 15 16  1  0
 16 17  1  0
M  END
>  <name>  (815) 
Car Nac Nd0 Car Car Nd0 Nac O_a Car Car Car Car Car Car Car Cs3 Cs3

>  <indices>  (815) 
[0, 1, 2]

>  <tasks>  (815) 
probe_placing close_aromatic_ring close_aromatic_ring close_aromatic_ring ring_built fix_Car close_aromatic_ring close_aromatic_ring build_to_Nd0 close_aromatic_ring close_aromatic_ring close_aromatic_ring close_aromatic_ring close_aromatic_ring build_orthosubstituent_to_rotated_aniline_Nd0

>  <prot_clashes>  (815) 
4

>  <NBS phar>  (815) 
0.13999999999999999

>  <NBS_non-phar>  (815) 
0.6410703098072725

>  <NBS>  (815) 
0.7810703098072725

>  <source_stage>  (815) 
scored

>  <source_iter>  (815) 
14

>  <source_parent_mol>  (815) 
9

>  <source_scenario>  (815) 
1 2 4 0 3 8 0 1 0 1 1 0 0 9

>  <source_rank_in_scored_call>  (815) 
10

>  <source_current_task>  (815) 
no_task

>  <scenario>  (815) 
1 2 4 0 3 8 0 1 0 1 1 0 0

>  <protected_ring_attachments>  (815) 
0,5,4,6|5,4,6;1,3,4,6|3,4,6;3,1,0,2|1,0,2;4,5,0,2|5,0,2;11,10,9,2|10,9,2;13,14,9,2|14,9,2

>  <current_task>  (815) 
no_task

>  <rotatable_bond_torsions>  (815) 
1,0,2,9;0,2,9,10

>  <rotated_aniline_Nd0_dihedral>  (815) 
108.09

>  <rotated_aniline_Nd0_tolerance>  (815) 
60.0

>  <rotated_aniline_Nd0_context>  (815) 
diarylamine

>  <rotated_aniline_Nd0_substituent_idx>  (815) 
0

>  <rotated_aniline_Nd0_ring>  (815) 
10 11 12 13 14 9

>  <flag ortho>  (815) 


$$$$

     RDKit          3D

 17 19  0  0  0  0  0  0  0  0999 V2000
  -27.9250   -7.4990  -30.9580 C   0  0  0  0  0  0  0  0  0  0  0  0
  -27.3200   -6.5270  -31.6350 N   0  0  0  0  0  0  0  0  0  0  0  0
  -27.8450   -8.9580  -31.0590 N   0  0  0  0  0  0  0  0  0  0  0  0
  -27.7850   -5.3170  -31.2540 C   0  0  0  0  0  0  0  0  0  0  0  0
  -28.7330   -5.5520  -30.2840 C   0  0  0  0  0  0  0  0  0  0  0  0
  -28.7920   -6.8870  -30.1280 N   0  0  0  0  0  0  0  0  0  0  0  0
  -29.1850   -4.3510  -29.9140 N   0  0  0  0  0  0  0  0  0  0  0  0
  -28.6060   -3.4020  -30.5610 O   0  0  0  0  0  0  0  0  0  0  0  0
  -27.7500   -3.9430  -31.3840 C   0  0  0  0  0  0  0  0  0  0  0  0
  -28.5570   -9.8700  -30.3700 C   0  0  0  0  0  0  0  0  0  0  0  0
  -29.5590  -10.6140  -30.9990 C   0  0  0  0  0  0  0  0  0  0  0  0
  -30.2080  -11.5880  -30.2650 C   0  0  0  0  0  0  0  0  0  0  0  0
  -29.9040  -11.8460  -28.9430 C   0  0  0  0  0  0  0  0  0  0  0  0
  -28.9170  -11.1130  -28.3240 C   0  0  0  0  0  0  0  0  0  0  0  0
  -28.2610  -10.1430  -29.0360 C   0  0  0  0  0  0  0  0  0  0  0  0
  -27.1820   -9.3420  -28.3500 C   0  0  0  0  0  0  0  0  0  0  0  0
  -27.3430   -8.8480  -26.9730 C   0  0  0  0  0  0  0  0  0  0  0  0
  1  2  2  0
  1  3  1  0
  1  6  1  0
  2  4  1  0
  3 10  1  0
  4  9  2  0
  4  5  1  0
  5  6  1  0
  5  7  2  0
  7  8  1  0
  8  9  1  0
 10 11  2  0
 10 15  1  0
 11 12  1  0
 12 13  2  0
 13 14  1  0
 14 15  2  0
 15 16  1  0
 16 17  1  0
M  END
>  <name>  (816) 
Car Nac Nd0 Car Car Nd0 Nac O_a Car Car Car Car Car Car Car Cs3 Cs3

>  <indices>  (816) 
[0, 1, 2]

>  <tasks>  (816) 
probe_placing close_aromatic_ring close_aromatic_ring close_aromatic_ring ring_built fix_Car close_aromatic_ring close_aromatic_ring build_to_Nd0 close_aromatic_ring close_aromatic_ring close_aromatic_ring close_aromatic_ring close_aromatic_ring build_orthosubstituent_to_rotated_aniline_Nd0

>  <prot_clashes>  (816) 
4

>  <NBS phar>  (816) 
0.13999999999999999

>  <NBS_non-phar>  (816) 
0.6386911728802849

>  <NBS>  (816) 
0.7786911728802849

>  <source_stage>  (816) 
scored

>  <source_iter>  (816) 
14

>  <source_parent_mol>  (816) 
9

>  <source_scenario>  (816) 
1 2 4 0 3 8 0 1 0 1 1 0 0 9

>  <source_rank_in_scored_call>  (816) 
12

>  <source_current_task>  (816) 
no_task

>  <scenario>  (816) 
1 2 4 0 3 8 0 1 0 1 1 0 0

>  <protected_ring_attachments>  (816) 
0,5,4,6|5,4,6;1,3,4,6|3,4,6;3,1,0,2|1,0,2;4,5,0,2|5,0,2;11,10,9,2|10,9,2;13,14,9,2|14,9,2

>  <current_task>  (816) 
no_task

>  <rotatable_bond_torsions>  (816) 
1,0,2,9;0,2,9,10

>  <rotated_aniline_Nd0_dihedral>  (816) 
108.09

>  <rotated_aniline_Nd0_tolerance>  (816) 
60.0

>  <rotated_aniline_Nd0_context>  (816) 
diarylamine

>  <rotated_aniline_Nd0_substituent_idx>  (816) 
0

>  <rotated_aniline_Nd0_ring>  (816) 
10 11 12 13 14 9

>  <flag ortho>  (816) 


$$$$

     RDKit          3D

 17 19  0  0  0  0  0  0  0  0999 V2000
  -27.9250   -7.4890  -30.9500 C   0  0  0  0  0  0  0  0  0  0  0  0
  -27.3140   -6.5200  -31.6250 N   0  0  0  0  0  0  0  0  0  0  0  0
  -27.8450   -8.9480  -31.0450 N   0  0  0  0  0  0  0  0  0  0  0  0
  -27.7800   -5.3080  -31.2530 C   0  0  0  0  0  0  0  0  0  0  0  0
  -28.7370   -5.5390  -30.2910 C   0  0  0  0  0  0  0  0  0  0  0  0
  -28.7990   -6.8730  -30.1310 N   0  0  0  0  0  0  0  0  0  0  0  0
  -29.1920   -4.3360  -29.9300 N   0  0  0  0  0  0  0  0  0  0  0  0
  -28.6060   -3.3900  -30.5750 O   0  0  0  0  0  0  0  0  0  0  0  0
  -27.7430   -3.9340  -31.3880 C   0  0  0  0  0  0  0  0  0  0  0  0
  -28.5650   -9.8570  -30.3590 C   0  0  0  0  0  0  0  0  0  0  0  0
  -29.5620  -10.6030  -30.9950 C   0  0  0  0  0  0  0  0  0  0  0  0
  -30.2180  -11.5730  -30.2630 C   0  0  0  0  0  0  0  0  0  0  0  0
  -29.9270  -11.8270  -28.9370 C   0  0  0  0  0  0  0  0  0  0  0  0
  -28.9440  -11.0930  -28.3120 C   0  0  0  0  0  0  0  0  0  0  0  0
  -28.2820  -10.1260  -29.0210 C   0  0  0  0  0  0  0  0  0  0  0  0
  -27.2080   -9.3230  -28.3290 C   0  0  0  0  0  0  0  0  0  0  0  0
  -28.6020  -11.3490  -26.8650 C   0  0  0  0  0  0  0  0  0  0  0  0
  1  2  2  0
  1  3  1  0
  1  6  1  0
  2  4  1  0
  3 10  1  0
  4  9  2  0
  4  5  1  0
  5  6  1  0
  5  7  2  0
  7  8  1  0
  8  9  1  0
 10 11  2  0
 10 15  1  0
 11 12  1  0
 12 13  2  0
 13 14  1  0
 14 15  2  0
 14 17  1  0
 15 16  1  0
M  END
>  <name>  (817) 
Car Nac Nd0 Car Car Nd0 Nac O_a Car Car Car Car Car Car Car Cs3 Cs3

>  <indices>  (817) 
[0, 1, 2]

>  <tasks>  (817) 
probe_placing close_aromatic_ring close_aromatic_ring close_aromatic_ring ring_built fix_Car close_aromatic_ring close_aromatic_ring build_to_Nd0 close_aromatic_ring close_aromatic_ring close_aromatic_ring close_aromatic_ring close_aromatic_ring build_orthosubstituent_to_rotated_aniline_Nd0

>  <prot_clashes>  (817) 
3

>  <NBS phar>  (817) 
0.12

>  <NBS_non-phar>  (817) 
0.657092431012322

>  <NBS>  (817) 
0.777092431012322

>  <source_stage>  (817) 
scored

>  <source_iter>  (817) 
14

>  <source_parent_mol>  (817) 
9

>  <source_scenario>  (817) 
1 2 4 0 3 8 0 1 0 1 1 0 0 9

>  <source_rank_in_scored_call>  (817) 
15

>  <source_current_task>  (817) 
no_task

>  <scenario>  (817) 
1 2 4 0 3 8 0 1 0 1 1 0 0

>  <protected_ring_attachments>  (817) 
0,5,4,6|5,4,6;1,3,4,6|3,4,6;3,1,0,2|1,0,2;4,5,0,2|5,0,2;11,10,9,2|10,9,2;13,14,9,2|14,9,2

>  <current_task>  (817) 
no_task

>  <rotatable_bond_torsions>  (817) 
1,0,2,9;0,2,9,10

>  <rotated_aniline_Nd0_dihedral>  (817) 
108.09

>  <rotated_aniline_Nd0_tolerance>  (817) 
60.0

>  <rotated_aniline_Nd0_context>  (817) 
diarylamine

>  <rotated_aniline_Nd0_substituent_idx>  (817) 
0

>  <rotated_aniline_Nd0_ring>  (817) 
10 11 12 13 14 9

>  <flag ortho>  (817) 


$$$$

     RDKit          3D

 17 19  0  0  0  0  0  0  0  0999 V2000
  -27.9150   -7.4160  -30.9440 C   0  0  0  0  0  0  0  0  0  0  0  0
  -27.2500   -6.4530  -31.5750 N   0  0  0  0  0  0  0  0  0  0  0  0
  -27.8310   -8.8760  -31.0240 N   0  0  0  0  0  0  0  0  0  0  0  0
  -27.7410   -5.2370  -31.2480 C   0  0  0  0  0  0  0  0  0  0  0  0
  -28.7700   -5.4610  -30.3610 C   0  0  0  0  0  0  0  0  0  0  0  0
  -28.8470   -6.7930  -30.1980 N   0  0  0  0  0  0  0  0  0  0  0  0
  -29.2480   -4.2540  -30.0440 N   0  0  0  0  0  0  0  0  0  0  0  0
  -28.6110   -3.3140  -30.6470 O   0  0  0  0  0  0  0  0  0  0  0  0
  -27.6900   -3.8650  -31.3880 C   0  0  0  0  0  0  0  0  0  0  0  0
  -28.6040   -9.7790  -30.3900 C   0  0  0  0  0  0  0  0  0  0  0  0
  -29.5500  -10.5270  -31.0960 C   0  0  0  0  0  0  0  0  0  0  0  0
  -30.2640  -11.4910  -30.4120 C   0  0  0  0  0  0  0  0  0  0  0  0
  -30.0770  -11.7370  -29.0650 C   0  0  0  0  0  0  0  0  0  0  0  0
  -29.1440  -11.0010  -28.3700 C   0  0  0  0  0  0  0  0  0  0  0  0
  -28.4260  -10.0400  -29.0320 C   0  0  0  0  0  0  0  0  0  0  0  0
  -27.4060   -9.2360  -28.2640 C   0  0  0  0  0  0  0  0  0  0  0  0
  -27.3110   -9.5200  -26.7700 C   0  0  0  0  0  0  0  0  0  0  0  0
  1  2  2  0
  1  3  1  0
  1  6  1  0
  2  4  1  0
  3 10  1  0
  4  9  2  0
  4  5  1  0
  5  6  1  0
  5  7  2  0
  7  8  1  0
  8  9  1  0
 10 11  2  0
 10 15  1  0
 11 12  1  0
 12 13  2  0
 13 14  1  0
 14 15  2  0
 15 16  1  0
 16 17  1  0
M  END
>  <name>  (818) 
Car Nac Nd0 Car Car Nd0 Nac O_a Car Car Car Car Car Car Car Cs3 Cs3

>  <indices>  (818) 
[0, 1, 2]

>  <tasks>  (818) 
probe_placing close_aromatic_ring close_aromatic_ring close_aromatic_ring ring_built fix_Car close_aromatic_ring close_aromatic_ring build_to_Nd0 close_aromatic_ring close_aromatic_ring close_aromatic_ring close_aromatic_ring close_aromatic_ring build_orthosubstituent_to_rotated_aniline_Nd0

>  <prot_clashes>  (818) 
4

>  <NBS phar>  (818) 
0.13999999999999999

>  <NBS_non-phar>  (818) 
0.6348592533784754

>  <NBS>  (818) 
0.7748592533784754

>  <source_stage>  (818) 
scored

>  <source_iter>  (818) 
14

>  <source_parent_mol>  (818) 
9

>  <source_scenario>  (818) 
1 2 4 0 3 8 0 1 0 1 1 0 0 9

>  <source_rank_in_scored_call>  (818) 
22

>  <source_current_task>  (818) 
no_task

>  <scenario>  (818) 
1 2 4 0 3 8 0 1 0 1 1 0 0

>  <protected_ring_attachments>  (818) 
0,5,4,6|5,4,6;1,3,4,6|3,4,6;3,1,0,2|1,0,2;4,5,0,2|5,0,2;11,10,9,2|10,9,2;13,14,9,2|14,9,2

>  <current_task>  (818) 
no_task

>  <rotatable_bond_torsions>  (818) 
1,0,2,9;0,2,9,10

>  <rotated_aniline_Nd0_dihedral>  (818) 
108.09

>  <rotated_aniline_Nd0_tolerance>  (818) 
60.0

>  <rotated_aniline_Nd0_context>  (818) 
diarylamine

>  <rotated_aniline_Nd0_substituent_idx>  (818) 
0

>  <rotated_aniline_Nd0_ring>  (818) 
10 11 12 13 14 9

>  <flag ortho>  (818) 


$$$$

     RDKit          3D

 17 19  0  0  0  0  0  0  0  0999 V2000
  -27.9300   -7.4900  -30.9420 C   0  0  0  0  0  0  0  0  0  0  0  0
  -27.3130   -6.5230  -31.6150 N   0  0  0  0  0  0  0  0  0  0  0  0
  -27.8480   -8.9500  -31.0330 N   0  0  0  0  0  0  0  0  0  0  0  0
  -27.7840   -5.3100  -31.2500 C   0  0  0  0  0  0  0  0  0  0  0  0
  -28.7480   -5.5390  -30.2950 C   0  0  0  0  0  0  0  0  0  0  0  0
  -28.8100   -6.8720  -30.1320 N   0  0  0  0  0  0  0  0  0  0  0  0
  -29.2070   -4.3350  -29.9410 N   0  0  0  0  0  0  0  0  0  0  0  0
  -28.6160   -3.3910  -30.5840 O   0  0  0  0  0  0  0  0  0  0  0  0
  -27.7460   -3.9360  -31.3880 C   0  0  0  0  0  0  0  0  0  0  0  0
  -28.5720   -9.8570  -30.3500 C   0  0  0  0  0  0  0  0  0  0  0  0
  -29.5630  -10.6060  -30.9920 C   0  0  0  0  0  0  0  0  0  0  0  0
  -30.2250  -11.5740  -30.2630 C   0  0  0  0  0  0  0  0  0  0  0  0
  -29.9440  -11.8240  -28.9340 C   0  0  0  0  0  0  0  0  0  0  0  0
  -28.9670  -11.0880  -28.3030 C   0  0  0  0  0  0  0  0  0  0  0  0
  -28.2990  -10.1220  -29.0090 C   0  0  0  0  0  0  0  0  0  0  0  0
  -27.2320   -9.3170  -28.3110 C   0  0  0  0  0  0  0  0  0  0  0  0
  -30.6990  -12.8920  -28.1820 C   0  0  0  0  0  0  0  0  0  0  0  0
  1  2  2  0
  1  3  1  0
  1  6  1  0
  2  4  1  0
  3 10  1  0
  4  9  2  0
  4  5  1  0
  5  6  1  0
  5  7  2  0
  7  8  1  0
  8  9  1  0
 10 11  2  0
 10 15  1  0
 11 12  1  0
 12 13  2  0
 13 14  1  0
 13 17  1  0
 14 15  2  0
 15 16  1  0
M  END
>  <name>  (819) 
Car Nac Nd0 Car Car Nd0 Nac O_a Car Car Car Car Car Car Car Cs3 Cs3

>  <indices>  (819) 
[0, 1, 2]

>  <tasks>  (819) 
probe_placing close_aromatic_ring close_aromatic_ring close_aromatic_ring ring_built fix_Car close_aromatic_ring close_aromatic_ring build_to_Nd0 close_aromatic_ring close_aromatic_ring close_aromatic_ring close_aromatic_ring close_aromatic_ring build_orthosubstituent_to_rotated_aniline_Nd0

>  <prot_clashes>  (819) 
3

>  <NBS phar>  (819) 
0.12

>  <NBS_non-phar>  (819) 
0.6543492709889132

>  <NBS>  (819) 
0.7743492709889132

>  <source_stage>  (819) 
scored

>  <source_iter>  (819) 
14

>  <source_parent_mol>  (819) 
9

>  <source_scenario>  (819) 
1 2 4 0 3 8 0 1 0 1 1 0 0 9

>  <source_rank_in_scored_call>  (819) 
23

>  <source_current_task>  (819) 
no_task

>  <scenario>  (819) 
1 2 4 0 3 8 0 1 0 1 1 0 0

>  <protected_ring_attachments>  (819) 
0,5,4,6|5,4,6;1,3,4,6|3,4,6;3,1,0,2|1,0,2;4,5,0,2|5,0,2;11,10,9,2|10,9,2;13,14,9,2|14,9,2

>  <current_task>  (819) 
no_task

>  <rotatable_bond_torsions>  (819) 
1,0,2,9;0,2,9,10

>  <rotated_aniline_Nd0_dihedral>  (819) 
108.09

>  <rotated_aniline_Nd0_tolerance>  (819) 
60.0

>  <rotated_aniline_Nd0_context>  (819) 
diarylamine

>  <rotated_aniline_Nd0_substituent_idx>  (819) 
0

>  <rotated_aniline_Nd0_ring>  (819) 
10 11 12 13 14 9

>  <flag ortho>  (819) 


$$$$

     RDKit          3D

 17 19  0  0  0  0  0  0  0  0999 V2000
  -27.9650   -7.4670  -30.8730 C   0  0  0  0  0  0  0  0  0  0  0  0
  -27.1860   -6.5010  -31.3510 N   0  0  0  0  0  0  0  0  0  0  0  0
  -27.8600   -8.9270  -30.9310 N   0  0  0  0  0  0  0  0  0  0  0  0
  -27.7410   -5.2870  -31.1380 C   0  0  0  0  0  0  0  0  0  0  0  0
  -28.9340   -5.5150  -30.4890 C   0  0  0  0  0  0  0  0  0  0  0  0
  -29.0380   -6.8480  -30.3440 N   0  0  0  0  0  0  0  0  0  0  0  0
  -29.4740   -4.3110  -30.2830 N   0  0  0  0  0  0  0  0  0  0  0  0
  -28.7280   -3.3680  -30.7390 O   0  0  0  0  0  0  0  0  0  0  0  0
  -27.6680   -3.9150  -31.2660 C   0  0  0  0  0  0  0  0  0  0  0  0
  -28.7460   -9.8330  -30.4740 C   0  0  0  0  0  0  0  0  0  0  0  0
  -29.5170  -10.5860  -31.3640 C   0  0  0  0  0  0  0  0  0  0  0  0
  -30.3550  -11.5530  -30.8450 C   0  0  0  0  0  0  0  0  0  0  0  0
  -30.4570  -11.7970  -29.4890 C   0  0  0  0  0  0  0  0  0  0  0  0
  -29.6970  -11.0560  -28.6130 C   0  0  0  0  0  0  0  0  0  0  0  0
  -28.8590  -10.0920  -29.1090 C   0  0  0  0  0  0  0  0  0  0  0  0
  -28.0300   -9.2820  -28.1430 C   0  0  0  0  0  0  0  0  0  0  0  0
  -26.9330   -9.9540  -27.0860 C   0  0  0  0  0  0  0  0  0  0  0  0
  1  2  2  0
  1  3  1  0
  1  6  1  0
  2  4  1  0
  3 10  1  0
  4  9  2  0
  4  5  1  0
  5  6  1  0
  5  7  2  0
  7  8  1  0
  8  9  1  0
 10 11  2  0
 10 15  1  0
 11 12  1  0
 12 13  2  0
 13 14  1  0
 14 15  2  0
 15 16  1  0
 16 17  1  0
M  END
>  <name>  (820) 
Car Nac Nd0 Car Car Nd0 Nac O_a Car Car Car Car Car Car Car Cs3 Cs3

>  <indices>  (820) 
[0, 1, 2]

>  <tasks>  (820) 
probe_placing close_aromatic_ring close_aromatic_ring close_aromatic_ring ring_built fix_Car close_aromatic_ring close_aromatic_ring build_to_Nd0 close_aromatic_ring close_aromatic_ring close_aromatic_ring close_aromatic_ring close_aromatic_ring build_orthosubstituent_to_rotated_aniline_Nd0

>  <prot_clashes>  (820) 
5

>  <NBS phar>  (820) 
0.12

>  <NBS_non-phar>  (820) 
0.41805458068847656

>  <NBS>  (820) 
0.5380545806884766

>  <source_stage>  (820) 
scored

>  <source_iter>  (820) 
14

>  <source_parent_mol>  (820) 
9

>  <source_scenario>  (820) 
1 2 4 0 3 8 0 1 0 1 1 0 0 9

>  <source_rank_in_scored_call>  (820) 
142

>  <source_current_task>  (820) 
no_task

>  <scenario>  (820) 
1 2 4 0 3 8 0 1 0 1 1 0 0

>  <protected_ring_attachments>  (820) 
0,5,4,6|5,4,6;1,3,4,6|3,4,6;3,1,0,2|1,0,2;4,5,0,2|5,0,2;11,10,9,2|10,9,2;13,14,9,2|14,9,2

>  <current_task>  (820) 
no_task

>  <rotatable_bond_torsions>  (820) 
1,0,2,9;0,2,9,10

>  <rotated_aniline_Nd0_dihedral>  (820) 
108.09

>  <rotated_aniline_Nd0_tolerance>  (820) 
60.0

>  <rotated_aniline_Nd0_context>  (820) 
diarylamine

>  <rotated_aniline_Nd0_substituent_idx>  (820) 
0

>  <rotated_aniline_Nd0_ring>  (820) 
10 11 12 13 14 9

>  <flag ortho>  (820) 


$$$$

     RDKit          3D

 17 19  0  0  0  0  0  0  0  0999 V2000
  -28.0400   -7.5060  -30.7310 C   0  0  0  0  0  0  0  0  0  0  0  0
  -27.5080   -6.7450  -31.6830 N   0  0  0  0  0  0  0  0  0  0  0  0
  -28.1330   -8.9600  -30.5790 N   0  0  0  0  0  0  0  0  0  0  0  0
  -27.7490   -5.4370  -31.4430 C   0  0  0  0  0  0  0  0  0  0  0  0
  -28.4720   -5.3850  -30.2720 C   0  0  0  0  0  0  0  0  0  0  0  0
  -28.6290   -6.6580  -29.8670 N   0  0  0  0  0  0  0  0  0  0  0  0
  -28.7040   -4.0900  -30.0420 N   0  0  0  0  0  0  0  0  0  0  0  0
  -28.1930   -3.3430  -30.9570 O   0  0  0  0  0  0  0  0  0  0  0  0
  -27.6050   -4.1190  -31.8250 C   0  0  0  0  0  0  0  0  0  0  0  0
  -28.7600   -9.6460  -29.6030 C   0  0  0  0  0  0  0  0  0  0  0  0
  -29.9480  -10.3320  -29.8670 C   0  0  0  0  0  0  0  0  0  0  0  0
  -30.5100  -11.0800  -28.8500 C   0  0  0  0  0  0  0  0  0  0  0  0
  -29.9420  -11.1690  -27.5940 C   0  0  0  0  0  0  0  0  0  0  0  0
  -28.7710  -10.4930  -27.3350 C   0  0  0  0  0  0  0  0  0  0  0  0
  -28.1990   -9.7460  -28.3310 C   0  0  0  0  0  0  0  0  0  0  0  0
  -26.9170   -9.0060  -28.0400 C   0  0  0  0  0  0  0  0  0  0  0  0
  -31.7920  -11.8280  -29.1220 C   0  0  0  0  0  0  0  0  0  0  0  0
  1  2  2  0
  1  3  1  0
  1  6  1  0
  2  4  1  0
  3 10  1  0
  4  9  2  0
  4  5  1  0
  5  7  2  0
  5  6  1  0
  7  8  1  0
  8  9  1  0
 10 11  2  0
 10 15  1  0
 11 12  1  0
 12 17  1  0
 12 13  2  0
 13 14  1  0
 14 15  2  0
 15 16  1  0
M  END
>  <name>  (821) 
Car Nac Nd0 Car Car Nd0 Nac O_a Car Car Car Car Car Car Car Cs3 Cs3

>  <indices>  (821) 
[0, 1, 2]

>  <tasks>  (821) 
probe_placing close_aromatic_ring close_aromatic_ring close_aromatic_ring ring_built fix_Car close_aromatic_ring close_aromatic_ring build_to_Nd0 close_aromatic_ring close_aromatic_ring close_aromatic_ring close_aromatic_ring close_aromatic_ring build_orthosubstituent_to_rotated_aniline_Nd0

>  <prot_clashes>  (821) 
4

>  <NBS phar>  (821) 
0.02

>  <NBS_non-phar>  (821) 
0.490564739002901

>  <NBS>  (821) 
0.510564739002901

>  <source_stage>  (821) 
scored

>  <source_iter>  (821) 
14

>  <source_parent_mol>  (821) 
9

>  <source_scenario>  (821) 
1 2 4 0 3 8 0 1 0 1 1 0 0 9

>  <source_rank_in_scored_call>  (821) 
146

>  <source_current_task>  (821) 
no_task

>  <scenario>  (821) 
1 2 4 0 3 8 0 1 0 1 1 0 0

>  <protected_ring_attachments>  (821) 
0,5,4,6|5,4,6;1,3,4,6|3,4,6;3,1,0,2|1,0,2;4,5,0,2|5,0,2;11,10,9,2|10,9,2;13,14,9,2|14,9,2

>  <current_task>  (821) 
no_task

>  <rotatable_bond_torsions>  (821) 
1,0,2,9;0,2,9,10

>  <rotated_aniline_Nd0_dihedral>  (821) 
108.09

>  <rotated_aniline_Nd0_tolerance>  (821) 
60.0

>  <rotated_aniline_Nd0_context>  (821) 
diarylamine

>  <rotated_aniline_Nd0_substituent_idx>  (821) 
0

>  <rotated_aniline_Nd0_ring>  (821) 
10 11 12 13 14 9

>  <flag ortho>  (821) 


$$$$

     RDKit          3D

 15 17  0  0  0  0  0  0  0  0999 V2000
  -28.2780   -7.6000  -31.6220 C   0  0  0  0  0  0  0  0  0  0  0  0
  -28.0250   -6.4970  -32.3230 N   0  0  0  0  0  0  0  0  0  0  0  0
  -28.4450   -8.9980  -32.0300 N   0  0  0  0  0  0  0  0  0  0  0  0
  -28.0530   -5.4060  -31.5260 C   0  0  0  0  0  0  0  0  0  0  0  0
  -28.3420   -5.8600  -30.2580 C   0  0  0  0  0  0  0  0  0  0  0  0
  -28.4690   -7.1950  -30.3540 N   0  0  0  0  0  0  0  0  0  0  0  0
  -28.3660   -4.7740  -29.4800 N   0  0  0  0  0  0  0  0  0  0  0  0
  -28.1220   -3.7030  -30.1440 O   0  0  0  0  0  0  0  0  0  0  0  0
  -27.9270   -4.0410  -31.3890 C   0  0  0  0  0  0  0  0  0  0  0  0
  -28.8320   -9.9400  -30.9560 C   0  0  0  0  0  0  0  0  0  0  0  0
  -27.9880  -11.0020  -30.7100 C   0  0  0  0  0  0  0  0  0  0  0  0
  -28.2620  -11.8690  -29.6700 C   0  0  0  0  0  0  0  0  0  0  0  0
  -29.3760  -11.6740  -28.8800 C   0  0  0  0  0  0  0  0  0  0  0  0
  -30.2490  -10.6120  -29.1000 C   0  0  0  0  0  0  0  0  0  0  0  0
  -29.9380   -9.7700  -30.1490 C   0  0  0  0  0  0  0  0  0  0  0  0
  1  2  2  0
  1  3  1  0
  1  6  1  0
  2  4  1  0
  3 10  1  0
  4  9  2  0
  4  5  1  0
  5  6  1  0
  5  7  2  0
  7  8  1  0
  8  9  1  0
 10 11  2  0
 10 15  1  0
 11 12  1  0
 12 13  2  0
 13 14  1  0
 14 15  2  0
M  END
>  <name>  (822) 
Car Nac Nd0 Car Car Nd0 Nac O_a Car Car Car Car Car Car Car

>  <indices>  (822) 
[0, 1, 2]

>  <tasks>  (822) 
probe_placing close_aromatic_ring close_aromatic_ring close_aromatic_ring ring_built fix_Car close_aromatic_ring close_aromatic_ring build_to_Nd0 close_aromatic_ring close_aromatic_ring close_aromatic_ring close_aromatic_ring

>  <prot_clashes>  (822) 
6

>  <NBS phar>  (822) 
0.12

>  <NBS_non-phar>  (822) 
0.5025824864705404

>  <NBS>  (822) 
0.6225824864705404

>  <source_stage>  (822) 
scored

>  <source_iter>  (822) 
12

>  <source_parent_mol>  (822) 
0

>  <source_scenario>  (822) 
1 2 4 0 3 8 0 2 0 0 1 0

>  <source_rank_in_scored_call>  (822) 
0

>  <source_current_task>  (822) 
close_aromatic_ring

>  <scenario>  (822) 
1 2 4 0 3 8 0 2 0 0 1

>  <protected_ring_attachments>  (822) 
0,5,4,6|5,4,6;1,3,4,6|3,4,6;3,1,0,2|1,0,2;4,5,0,2|5,0,2

>  <current_task>  (822) 
no_task

>  <rotatable_bond_torsions>  (822) 
1,0,2,9;0,2,9,10;9,10,11,12

$$$$

     RDKit          3D

 16 18  0  0  0  0  0  0  0  0999 V2000
  -28.2950   -7.6090  -31.6230 C   0  0  0  0  0  0  0  0  0  0  0  0
  -28.0510   -6.5020  -32.3220 N   0  0  0  0  0  0  0  0  0  0  0  0
  -28.4390   -9.0090  -32.0320 N   0  0  0  0  0  0  0  0  0  0  0  0
  -28.1000   -5.4120  -31.5260 C   0  0  0  0  0  0  0  0  0  0  0  0
  -28.3940   -5.8690  -30.2600 C   0  0  0  0  0  0  0  0  0  0  0  0
  -28.5020   -7.2060  -30.3570 N   0  0  0  0  0  0  0  0  0  0  0  0
  -28.4400   -4.7830  -29.4830 N   0  0  0  0  0  0  0  0  0  0  0  0
  -28.2040   -3.7090  -30.1450 O   0  0  0  0  0  0  0  0  0  0  0  0
  -27.9940   -4.0450  -31.3880 C   0  0  0  0  0  0  0  0  0  0  0  0
  -28.8230   -9.9560  -30.9610 C   0  0  0  0  0  0  0  0  0  0  0  0
  -27.9670  -11.0060  -30.7070 C   0  0  0  0  0  0  0  0  0  0  0  0
  -28.2380  -11.8760  -29.6690 C   0  0  0  0  0  0  0  0  0  0  0  0
  -29.3620  -11.6960  -28.8890 C   0  0  0  0  0  0  0  0  0  0  0  0
  -30.2470  -10.6460  -29.1170 C   0  0  0  0  0  0  0  0  0  0  0  0
  -29.9380   -9.8000  -30.1640 C   0  0  0  0  0  0  0  0  0  0  0  0
  -29.6370  -12.6610  -27.7610 C   0  0  0  0  0  0  0  0  0  0  0  0
  1  2  2  0
  1  3  1  0
  1  6  1  0
  2  4  1  0
  3 10  1  0
  4  9  2  0
  4  5  1  0
  5  6  1  0
  5  7  2  0
  7  8  1  0
  8  9  1  0
 10 11  2  0
 10 15  1  0
 11 12  1  0
 12 13  2  0
 13 14  1  0
 13 16  1  0
 14 15  2  0
M  END
>  <name>  (823) 
Car Nac Nd0 Car Car Nd0 Nac O_a Car Car Car Car Car Car Car Cs3

>  <indices>  (823) 
[0, 1, 2]

>  <tasks>  (823) 
probe_placing close_aromatic_ring close_aromatic_ring close_aromatic_ring ring_built fix_Car close_aromatic_ring close_aromatic_ring build_to_Nd0 close_aromatic_ring close_aromatic_ring close_aromatic_ring close_aromatic_ring close_aromatic_ring

>  <prot_clashes>  (823) 
6

>  <NBS phar>  (823) 
0.12

>  <NBS_non-phar>  (823) 
0.4859864115715027

>  <NBS>  (823) 
0.6059864115715027

>  <source_stage>  (823) 
scored

>  <source_iter>  (823) 
13

>  <source_parent_mol>  (823) 
0

>  <source_scenario>  (823) 
1 2 4 0 3 8 0 2 0 0 1 0 0

>  <source_rank_in_scored_call>  (823) 
28

>  <source_current_task>  (823) 
no_task

>  <scenario>  (823) 
1 2 4 0 3 8 0 2 0 0 1 0

>  <protected_ring_attachments>  (823) 
0,5,4,6|5,4,6;1,3,4,6|3,4,6;3,1,0,2|1,0,2;4,5,0,2|5,0,2;11,10,9,2|10,9,2;13,14,9,2|14,9,2

>  <current_task>  (823) 
no_task

>  <rotatable_bond_torsions>  (823) 
1,0,2,9;0,2,9,10

$$$$

     RDKit          3D

 16 18  0  0  0  0  0  0  0  0999 V2000
  -28.5770   -7.7380  -31.4790 C   0  0  0  0  0  0  0  0  0  0  0  0
  -28.4260   -6.4970  -31.9370 N   0  0  0  0  0  0  0  0  0  0  0  0
  -28.7220   -9.0220  -32.1700 N   0  0  0  0  0  0  0  0  0  0  0  0
  -28.4310   -5.6070  -30.9210 C   0  0  0  0  0  0  0  0  0  0  0  0
  -28.5970   -6.3390  -29.7660 C   0  0  0  0  0  0  0  0  0  0  0  0
  -28.6790   -7.6270  -30.1430 N   0  0  0  0  0  0  0  0  0  0  0  0
  -28.6000   -5.4490  -28.7690 N   0  0  0  0  0  0  0  0  0  0  0  0
  -28.4530   -4.2480  -29.1980 O   0  0  0  0  0  0  0  0  0  0  0  0
  -28.3480   -4.2990  -30.4970 C   0  0  0  0  0  0  0  0  0  0  0  0
  -28.9830  -10.1940  -31.3040 C   0  0  0  0  0  0  0  0  0  0  0  0
  -28.0810  -11.2350  -31.3580 C   0  0  0  0  0  0  0  0  0  0  0  0
  -28.2350  -12.3190  -30.5160 C   0  0  0  0  0  0  0  0  0  0  0  0
  -29.2870  -12.3620  -29.6250 C   0  0  0  0  0  0  0  0  0  0  0  0
  -30.2160  -11.3280  -29.5440 C   0  0  0  0  0  0  0  0  0  0  0  0
  -30.0250  -10.2640  -30.4020 C   0  0  0  0  0  0  0  0  0  0  0  0
  -31.3680  -11.3680  -28.5710 C   0  0  0  0  0  0  0  0  0  0  0  0
  1  3  1  0
  1  2  2  0
  1  6  1  0
  2  4  1  0
  3 10  1  0
  4  9  2  0
  4  5  1  0
  5  6  1  0
  5  7  2  0
  7  8  1  0
  8  9  1  0
 10 11  2  0
 10 15  1  0
 11 12  1  0
 12 13  2  0
 13 14  1  0
 14 15  2  0
 14 16  1  0
M  END
>  <name>  (824) 
Car Nac Nd0 Car Car Nd0 Nac O_a Car Car Car Car Car Car Car Cs3

>  <indices>  (824) 
[0, 1, 2]

>  <tasks>  (824) 
probe_placing close_aromatic_ring close_aromatic_ring close_aromatic_ring ring_built fix_Car close_aromatic_ring close_aromatic_ring build_to_Nd0 close_aromatic_ring close_aromatic_ring close_aromatic_ring close_aromatic_ring close_aromatic_ring

>  <prot_clashes>  (824) 
4

>  <NBS phar>  (824) 
0.1

>  <NBS_non-phar>  (824) 
0.4568849802017212

>  <NBS>  (824) 
0.5568849802017212

>  <source_stage>  (824) 
scored

>  <source_iter>  (824) 
13

>  <source_parent_mol>  (824) 
0

>  <source_scenario>  (824) 
1 2 4 0 3 8 0 2 0 0 1 0 0

>  <source_rank_in_scored_call>  (824) 
34

>  <source_current_task>  (824) 
no_task

>  <scenario>  (824) 
1 2 4 0 3 8 0 2 0 0 1 0

>  <protected_ring_attachments>  (824) 
0,5,4,6|5,4,6;1,3,4,6|3,4,6;3,1,0,2|1,0,2;4,5,0,2|5,0,2;11,10,9,2|10,9,2;13,14,9,2|14,9,2

>  <current_task>  (824) 
no_task

>  <rotatable_bond_torsions>  (824) 
1,0,2,9;0,2,9,10

$$$$

     RDKit          3D

 16 18  0  0  0  0  0  0  0  0999 V2000
  -28.5930   -8.4650  -31.4690 C   0  0  0  0  0  0  0  0  0  0  0  0
  -28.4720   -7.3050  -32.1100 N   0  0  0  0  0  0  0  0  0  0  0  0
  -28.7930   -9.8330  -31.9570 N   0  0  0  0  0  0  0  0  0  0  0  0
  -28.4000   -6.2790  -31.2330 C   0  0  0  0  0  0  0  0  0  0  0  0
  -28.4830   -6.8360  -29.9770 C   0  0  0  0  0  0  0  0  0  0  0  0
  -28.5960   -8.1640  -30.1580 N   0  0  0  0  0  0  0  0  0  0  0  0
  -28.4090   -5.8140  -29.1200 N   0  0  0  0  0  0  0  0  0  0  0  0
  -28.2910   -4.6880  -29.7260 O   0  0  0  0  0  0  0  0  0  0  0  0
  -28.2810   -4.9250  -31.0090 C   0  0  0  0  0  0  0  0  0  0  0  0
  -28.9920  -10.8650  -30.9160 C   0  0  0  0  0  0  0  0  0  0  0  0
  -28.1000  -11.9150  -30.8850 C   0  0  0  0  0  0  0  0  0  0  0  0
  -28.1950  -12.8670  -29.8880 C   0  0  0  0  0  0  0  0  0  0  0  0
  -29.1790  -12.7680  -28.9260 C   0  0  0  0  0  0  0  0  0  0  0  0
  -30.0960  -11.7200  -28.9270 C   0  0  0  0  0  0  0  0  0  0  0  0
  -29.9650  -10.7920  -29.9400 C   0  0  0  0  0  0  0  0  0  0  0  0
  -27.2200  -14.0170  -29.8510 C   0  0  0  0  0  0  0  0  0  0  0  0
  1  2  2  0
  1  3  1  0
  1  6  1  0
  2  4  1  0
  3 10  1  0
  4  9  2  0
  4  5  1  0
  5  6  1  0
  5  7  2  0
  7  8  1  0
  8  9  1  0
 10 11  2  0
 10 15  1  0
 11 12  1  0
 12 16  1  0
 12 13  2  0
 13 14  1  0
 14 15  2  0
M  END
>  <name>  (825) 
Car Nac Nd0 Car Car Nd0 Nac O_a Car Car Car Car Car Car Car Cs3

>  <indices>  (825) 
[0, 1, 2]

>  <tasks>  (825) 
probe_placing close_aromatic_ring close_aromatic_ring close_aromatic_ring ring_built fix_Car close_aromatic_ring close_aromatic_ring build_to_Nd0 close_aromatic_ring close_aromatic_ring close_aromatic_ring close_aromatic_ring close_aromatic_ring

>  <prot_clashes>  (825) 
1

>  <NBS phar>  (825) 
0.0

>  <NBS_non-phar>  (825) 
0.3600938320159912

>  <NBS>  (825) 
0.3600938320159912

>  <source_stage>  (825) 
scored

>  <source_iter>  (825) 
13

>  <source_parent_mol>  (825) 
0

>  <source_scenario>  (825) 
1 2 4 0 3 8 0 2 0 0 1 0 0

>  <source_rank_in_scored_call>  (825) 
67

>  <source_current_task>  (825) 
no_task

>  <scenario>  (825) 
1 2 4 0 3 8 0 2 0 0 1 0

>  <protected_ring_attachments>  (825) 
0,5,4,6|5,4,6;1,3,4,6|3,4,6;3,1,0,2|1,0,2;4,5,0,2|5,0,2;11,10,9,2|10,9,2;13,14,9,2|14,9,2

>  <current_task>  (825) 
no_task

>  <rotatable_bond_torsions>  (825) 
1,0,2,9;0,2,9,10

$$$$

     RDKit          3D

 18 21  0  0  0  0  0  0  0  0999 V2000
  -28.3970   -7.8350  -31.6040 C   0  0  0  0  0  0  0  0  0  0  0  0
  -28.1720   -6.7280  -32.3080 N   0  0  0  0  0  0  0  0  0  0  0  0
  -28.5660   -9.2330  -32.0130 N   0  0  0  0  0  0  0  0  0  0  0  0
  -28.1840   -5.6400  -31.5060 C   0  0  0  0  0  0  0  0  0  0  0  0
  -28.4300   -6.1010  -30.2310 C   0  0  0  0  0  0  0  0  0  0  0  0
  -28.5500   -7.4360  -30.3290 N   0  0  0  0  0  0  0  0  0  0  0  0
  -28.4380   -5.0180  -29.4500 N   0  0  0  0  0  0  0  0  0  0  0  0
  -28.2210   -3.9430  -30.1160 O   0  0  0  0  0  0  0  0  0  0  0  0
  -28.0630   -4.2740  -31.3680 C   0  0  0  0  0  0  0  0  0  0  0  0
  -28.9230  -10.2050  -30.8940 C   0  0  0  0  0  0  0  0  0  0  0  0
  -28.0650  -11.2620  -30.6830 C   0  0  0  0  0  0  0  0  0  0  0  0
  -28.3040  -12.1460  -29.6290 C   0  0  0  0  0  0  0  0  0  0  0  0
  -29.4070  -11.9150  -28.8380 C   0  0  0  0  0  0  0  0  0  0  0  0
  -30.2720  -10.8600  -29.0400 C   0  0  0  0  0  0  0  0  0  0  0  0
  -30.0210   -9.9960  -30.0860 C   0  0  0  0  0  0  0  0  0  0  0  0
  -31.2490  -10.9000  -28.1080 N   0  0  0  0  0  0  0  0  0  0  0  0
  -30.9990  -11.9840  -27.3140 C   0  0  0  0  0  0  0  0  0  0  0  0
  -29.8670  -12.6240  -27.7470 C   0  0  0  0  0  0  0  0  0  0  0  0
  1  2  2  0
  1  3  1  0
  1  6  1  0
  2  4  1  0
  3 10  1  0
  4  9  2  0
  4  5  1  0
  5  6  1  0
  5  7  2  0
  7  8  1  0
  8  9  1  0
 10 11  2  0
 10 15  1  0
 11 12  1  0
 12 13  2  0
 13 14  1  0
 13 18  1  0
 14 15  2  0
 14 16  1  0
 16 17  1  0
 17 18  2  0
M  END
>  <name>  (826) 
Car Nac Nd0 Car Car Nd0 Nac O_a Car Car Car Car Car Car Car Nd0 Car Car

>  <indices>  (826) 
[0, 1, 2]

>  <tasks>  (826) 
probe_placing close_aromatic_ring close_aromatic_ring close_aromatic_ring ring_built fix_Car close_aromatic_ring close_aromatic_ring build_to_Nd0 close_aromatic_ring close_aromatic_ring close_aromatic_ring close_aromatic_ring close_aromatic_ring no_task build_to_Nd0

>  <prot_clashes>  (826) 
4

>  <NBS phar>  (826) 
0.24000000000000005

>  <NBS_non-phar>  (826) 
0.45315959718492294

>  <NBS>  (826) 
0.6931595971849229

>  <source_stage>  (826) 
scored

>  <source_iter>  (826) 
15

>  <source_parent_mol>  (826) 
1

>  <source_scenario>  (826) 
1 2 4 0 3 8 0 2 0 0 1 0 0 1 1

>  <source_rank_in_scored_call>  (826) 
4

>  <source_current_task>  (826) 
close_aromatic_ring

>  <scenario>  (826) 
1 2 4 0 3 8 0 2 0 0 1 0 0 1

>  <protected_ring_attachments>  (826) 
0,5,4,6|5,4,6;1,3,4,6|3,4,6;3,1,0,2|1,0,2;4,5,0,2|5,0,2;9,14,13,15|14,13,15;11,10,9,2|10,9,2;11,12,13,15|12,13,15;13,14,9,2|14,9,2

>  <current_task>  (826) 
no_task

>  <rotatable_bond_torsions>  (826) 
1,0,2,9;0,2,9,10;12,13,15,16

$$$$

     RDKit          3D

 18 21  0  0  0  0  0  0  0  0999 V2000
  -28.4020   -8.0750  -31.5580 C   0  0  0  0  0  0  0  0  0  0  0  0
  -28.1710   -6.9820  -32.2810 N   0  0  0  0  0  0  0  0  0  0  0  0
  -28.5710   -9.4800  -31.9390 N   0  0  0  0  0  0  0  0  0  0  0  0
  -28.1860   -5.8780  -31.5000 C   0  0  0  0  0  0  0  0  0  0  0  0
  -28.4430   -6.3130  -30.2190 C   0  0  0  0  0  0  0  0  0  0  0  0
  -28.5660   -7.6510  -30.2930 N   0  0  0  0  0  0  0  0  0  0  0  0
  -28.4550   -5.2160  -29.4580 N   0  0  0  0  0  0  0  0  0  0  0  0
  -28.2320   -4.1540  -30.1430 O   0  0  0  0  0  0  0  0  0  0  0  0
  -28.0630   -4.5100  -31.3880 C   0  0  0  0  0  0  0  0  0  0  0  0
  -28.9320  -10.4440  -30.8090 C   0  0  0  0  0  0  0  0  0  0  0  0
  -28.0630  -11.4820  -30.5940 C   0  0  0  0  0  0  0  0  0  0  0  0
  -28.3180  -12.3220  -29.5310 C   0  0  0  0  0  0  0  0  0  0  0  0
  -29.4120  -12.1200  -28.7140 C   0  0  0  0  0  0  0  0  0  0  0  0
  -30.2780  -11.0660  -28.9470 C   0  0  0  0  0  0  0  0  0  0  0  0
  -30.0450  -10.2050  -30.0110 C   0  0  0  0  0  0  0  0  0  0  0  0
  -27.6320  -13.4160  -29.0910 N   0  0  0  0  0  0  0  0  0  0  0  0
  -28.2870  -13.8880  -28.0180 C   0  0  0  0  0  0  0  0  0  0  0  0
  -29.3990  -13.1190  -27.7430 C   0  0  0  0  0  0  0  0  0  0  0  0
  1  2  2  0
  1  3  1  0
  1  6  1  0
  2  4  1  0
  3 10  1  0
  4  9  2  0
  4  5  1  0
  5  6  1  0
  5  7  2  0
  7  8  1  0
  8  9  1  0
 10 11  2  0
 10 15  1  0
 11 12  1  0
 12 16  1  0
 12 13  2  0
 13 14  1  0
 13 18  1  0
 14 15  2  0
 16 17  1  0
 17 18  2  0
M  END
>  <name>  (827) 
Car Nac Nd0 Car Car Nd0 Nac O_a Car Car Car Car Car Car Car Nd0 Car Car

>  <indices>  (827) 
[0, 1, 2]

>  <tasks>  (827) 
probe_placing close_aromatic_ring close_aromatic_ring close_aromatic_ring ring_built fix_Car close_aromatic_ring close_aromatic_ring build_to_Nd0 close_aromatic_ring close_aromatic_ring close_aromatic_ring close_aromatic_ring close_aromatic_ring no_task build_to_Nd0

>  <prot_clashes>  (827) 
3

>  <NBS phar>  (827) 
0.22000000000000003

>  <NBS_non-phar>  (827) 
0.44412125481499565

>  <NBS>  (827) 
0.6641212548149957

>  <source_stage>  (827) 
scored

>  <source_iter>  (827) 
15

>  <source_parent_mol>  (827) 
4

>  <source_scenario>  (827) 
1 2 4 0 3 8 0 2 0 0 1 0 0 5 4

>  <source_rank_in_scored_call>  (827) 
0

>  <source_current_task>  (827) 
close_aromatic_ring

>  <scenario>  (827) 
1 2 4 0 3 8 0 2 0 0 1 0 0 5

>  <protected_ring_attachments>  (827) 
0,5,4,6|5,4,6;1,3,4,6|3,4,6;3,1,0,2|1,0,2;4,5,0,2|5,0,2;9,10,11,15|10,11,15;11,10,9,2|10,9,2;13,12,11,15|12,11,15;13,14,9,2|14,9,2

>  <current_task>  (827) 
no_task

>  <rotatable_bond_torsions>  (827) 
1,0,2,9;0,2,9,10;10,11,15,16

$$$$

     RDKit          3D

 13 14  0  0  0  0  0  0  0  0999 V2000
  -28.2800   -7.2570  -31.6970 C   0  0  0  0  0  0  0  0  0  0  0  0
  -27.6900   -6.2180  -32.3150 N   0  0  0  0  0  0  0  0  0  0  0  0
  -28.4380   -8.7510  -32.1370 N   0  0  0  0  0  0  0  0  0  0  0  0
  -27.8210   -5.1060  -31.6050 C   0  0  0  0  0  0  0  0  0  0  0  0
  -28.5320   -5.4570  -30.4730 C   0  0  0  0  0  0  0  0  0  0  0  0
  -28.8130   -6.7870  -30.5330 N   0  0  0  0  0  0  0  0  0  0  0  0
  -28.8670   -4.5540  -29.4850 C   0  0  0  0  0  0  0  0  0  0  0  0
  -28.4650   -3.2740  -29.6630 N   0  0  0  0  0  0  0  0  0  0  0  0
  -27.7720   -2.9150  -30.7580 C   0  0  0  0  0  0  0  0  0  0  0  0
  -27.4230   -3.7950  -31.7630 C   0  0  0  0  0  0  0  0  0  0  0  0
  -28.5970   -9.7140  -31.1670 C   0  0  0  0  0  0  0  0  0  0  0  0
  -28.7770   -9.5930  -29.9700 O   0  0  0  0  0  0  0  0  0  0  0  0
  -28.5740  -11.1690  -31.6430 C   0  0  0  0  0  0  0  0  0  0  0  0
  1  2  2  0
  1  3  1  0
  1  6  1  0
  2  4  1  0
  3 11  1  0
  4 10  1  0
  4  5  2  0
  5  6  1  0
  5  7  1  0
  7  8  2  0
  8  9  1  0
  9 10  2  0
 11 13  1  0
 11 12  2  0
M  END
>  <name>  (828) 
Car Nac Nd0 Car Car Nd0 Car Nac Car Car Cs2 .=O Cs3

>  <indices>  (828) 
[0, 1, 2]

>  <tasks>  (828) 
probe_placing close_aromatic_ring close_aromatic_ring close_aromatic_ring ring_built fix_Car close_aromatic_ring close_aromatic_ring close_aromatic_ring build_to_Nd0 build_DB_to_Cs2

>  <prot_clashes>  (828) 
1

>  <NBS phar>  (828) 
0.12

>  <NBS_non-phar>  (828) 
0.5607655231769269

>  <NBS>  (828) 
0.6807655231769268

>  <source_stage>  (828) 
scored

>  <source_iter>  (828) 
10

>  <source_parent_mol>  (828) 
0

>  <source_scenario>  (828) 
1 2 4 0 4 9 0 0 1 0

>  <source_rank_in_scored_call>  (828) 
2

>  <source_current_task>  (828) 
build_SB_to_Cs2

>  <scenario>  (828) 
1 2 4 0 4 9 0 0 1

>  <protected_ring_attachments>  (828) 
0,5,4,6|5,4,6;1,3,4,6|3,4,6;3,1,0,2|1,0,2;4,5,0,2|5,0,2

>  <current_task>  (828) 
no_task

>  <rotatable_bond_torsions>  (828) 
1,0,2,10;0,2,10,11

$$$$

     RDKit          3D

 14 15  0  0  0  0  0  0  0  0999 V2000
  -28.2010   -7.1950  -31.3500 C   0  0  0  0  0  0  0  0  0  0  0  0
  -27.7440   -6.0930  -31.9710 N   0  0  0  0  0  0  0  0  0  0  0  0
  -28.2070   -8.6940  -31.8030 N   0  0  0  0  0  0  0  0  0  0  0  0
  -27.9770   -5.0080  -31.2450 C   0  0  0  0  0  0  0  0  0  0  0  0
  -28.6160   -5.4440  -30.1000 C   0  0  0  0  0  0  0  0  0  0  0  0
  -28.7530   -6.7960  -30.1680 N   0  0  0  0  0  0  0  0  0  0  0  0
  -29.0220   -4.5920  -29.0940 C   0  0  0  0  0  0  0  0  0  0  0  0
  -28.7660   -3.2740  -29.2670 N   0  0  0  0  0  0  0  0  0  0  0  0
  -28.1450   -2.8320  -30.3750 C   0  0  0  0  0  0  0  0  0  0  0  0
  -27.7280   -3.6600  -31.3980 C   0  0  0  0  0  0  0  0  0  0  0  0
  -28.2360   -9.6770  -30.8410 C   0  0  0  0  0  0  0  0  0  0  0  0
  -28.3970   -9.5860  -29.6380 O   0  0  0  0  0  0  0  0  0  0  0  0
  -28.0670  -11.1160  -31.3330 C   0  0  0  0  0  0  0  0  0  0  0  0
  -29.4440  -11.7340  -31.5780 C   0  0  0  0  0  0  0  0  0  0  0  0
  1  2  2  0
  1  3  1  0
  1  6  1  0
  2  4  1  0
  3 11  1  0
  4 10  1  0
  4  5  2  0
  5  6  1  0
  5  7  1  0
  7  8  2  0
  8  9  1  0
  9 10  2  0
 11 13  1  0
 11 12  2  0
 13 14  1  0
M  END
>  <name>  (829) 
Car Nac Nd0 Car Car Nd0 Car Nac Car Car Cs2 .=O Cs3 Cs3

>  <indices>  (829) 
[0, 1, 2]

>  <tasks>  (829) 
probe_placing close_aromatic_ring close_aromatic_ring close_aromatic_ring ring_built fix_Car close_aromatic_ring close_aromatic_ring close_aromatic_ring build_to_Nd0 build_DB_to_Cs2 build_SB_to_Cs2

>  <prot_clashes>  (829) 
0

>  <NBS phar>  (829) 
0.26000000000000006

>  <NBS_non-phar>  (829) 
0.5174803393227714

>  <NBS>  (829) 
0.7774803393227714

>  <source_stage>  (829) 
scored

>  <source_iter>  (829) 
11

>  <source_parent_mol>  (829) 
2

>  <source_scenario>  (829) 
1 2 4 0 4 9 0 0 1 0 2

>  <source_rank_in_scored_call>  (829) 
19

>  <source_current_task>  (829) 
no_task

>  <scenario>  (829) 
1 2 4 0 4 9 0 0 1 0

>  <protected_ring_attachments>  (829) 
0,5,4,6|5,4,6;1,3,4,6|3,4,6;3,1,0,2|1,0,2;4,5,0,2|5,0,2

>  <current_task>  (829) 
no_task

>  <rotatable_bond_torsions>  (829) 
1,0,2,10;0,2,10,12

$$$$

     RDKit          3D

 14 15  0  0  0  0  0  0  0  0999 V2000
  -28.3620   -7.2850  -31.5560 C   0  0  0  0  0  0  0  0  0  0  0  0
  -27.8290   -6.1770  -32.1010 N   0  0  0  0  0  0  0  0  0  0  0  0
  -28.4380   -8.7530  -32.0950 N   0  0  0  0  0  0  0  0  0  0  0  0
  -28.0210   -5.1230  -31.3190 C   0  0  0  0  0  0  0  0  0  0  0  0
  -28.7130   -5.5870  -30.2160 C   0  0  0  0  0  0  0  0  0  0  0  0
  -28.9210   -6.9230  -30.3660 N   0  0  0  0  0  0  0  0  0  0  0  0
  -29.0980   -4.7710  -29.1720 C   0  0  0  0  0  0  0  0  0  0  0  0
  -28.7660   -3.4620  -29.2630 N   0  0  0  0  0  0  0  0  0  0  0  0
  -28.0930   -2.9940  -30.3280 C   0  0  0  0  0  0  0  0  0  0  0  0
  -27.6950   -3.7850  -31.3880 C   0  0  0  0  0  0  0  0  0  0  0  0
  -28.5450   -9.7860  -31.1910 C   0  0  0  0  0  0  0  0  0  0  0  0
  -28.7320   -9.7540  -29.9900 O   0  0  0  0  0  0  0  0  0  0  0  0
  -28.4420  -11.2020  -31.7630 C   0  0  0  0  0  0  0  0  0  0  0  0
  -27.7530   -1.5240  -30.3680 C   0  0  0  0  0  0  0  0  0  0  0  0
  1  2  2  0
  1  3  1  0
  1  6  1  0
  2  4  1  0
  3 11  1  0
  4 10  1  0
  4  5  2  0
  5  6  1  0
  5  7  1  0
  7  8  2  0
  8  9  1  0
  9 10  2  0
  9 14  1  0
 11 13  1  0
 11 12  2  0
M  END
>  <name>  (830) 
Car Nac Nd0 Car Car Nd0 Car Nac Car Car Cs2 .=O Cs3 Cs3

>  <indices>  (830) 
[0, 1, 2]

>  <tasks>  (830) 
probe_placing close_aromatic_ring close_aromatic_ring close_aromatic_ring ring_built fix_Car close_aromatic_ring close_aromatic_ring close_aromatic_ring build_to_Nd0 build_DB_to_Cs2 build_SB_to_Cs2

>  <prot_clashes>  (830) 
2

>  <NBS phar>  (830) 
0.18

>  <NBS_non-phar>  (830) 
0.5907037598746163

>  <NBS>  (830) 
0.7707037598746163

>  <source_stage>  (830) 
scored

>  <source_iter>  (830) 
11

>  <source_parent_mol>  (830) 
2

>  <source_scenario>  (830) 
1 2 4 0 4 9 0 0 1 0 2

>  <source_rank_in_scored_call>  (830) 
22

>  <source_current_task>  (830) 
no_task

>  <scenario>  (830) 
1 2 4 0 4 9 0 0 1 0

>  <protected_ring_attachments>  (830) 
0,5,4,6|5,4,6;1,3,4,6|3,4,6;3,1,0,2|1,0,2;4,5,0,2|5,0,2

>  <current_task>  (830) 
no_task

>  <rotatable_bond_torsions>  (830) 
1,0,2,10;0,2,10,12

$$$$

     RDKit          3D

 14 15  0  0  0  0  0  0  0  0999 V2000
  -28.4510   -7.2430  -31.6800 C   0  0  0  0  0  0  0  0  0  0  0  0
  -27.7630   -6.3010  -32.3500 N   0  0  0  0  0  0  0  0  0  0  0  0
  -28.7280   -8.7450  -32.0260 N   0  0  0  0  0  0  0  0  0  0  0  0
  -27.8110   -5.1370  -31.7160 C   0  0  0  0  0  0  0  0  0  0  0  0
  -28.5690   -5.3510  -30.5810 C   0  0  0  0  0  0  0  0  0  0  0  0
  -28.9620   -6.6540  -30.5610 N   0  0  0  0  0  0  0  0  0  0  0  0
  -28.8430   -4.3600  -29.6610 C   0  0  0  0  0  0  0  0  0  0  0  0
  -28.3300   -3.1330  -29.9120 N   0  0  0  0  0  0  0  0  0  0  0  0
  -27.5900   -2.9070  -31.0110 C   0  0  0  0  0  0  0  0  0  0  0  0
  -27.3000   -3.8780  -31.9490 C   0  0  0  0  0  0  0  0  0  0  0  0
  -28.9860   -9.6240  -31.0000 C   0  0  0  0  0  0  0  0  0  0  0  0
  -29.1760   -9.4100  -29.8180 O   0  0  0  0  0  0  0  0  0  0  0  0
  -29.0790  -11.1040  -31.3810 C   0  0  0  0  0  0  0  0  0  0  0  0
  -27.7530  -11.5750  -32.0210 C   0  0  0  0  0  0  0  0  0  0  0  0
  1  2  2  0
  1  3  1  0
  1  6  1  0
  2  4  1  0
  3 11  1  0
  4 10  1  0
  4  5  2  0
  5  6  1  0
  5  7  1  0
  7  8  2  0
  8  9  1  0
  9 10  2  0
 11 13  1  0
 11 12  2  0
 13 14  1  0
M  END
>  <name>  (831) 
Car Nac Nd0 Car Car Nd0 Car Nac Car Car Cs2 .=O Cs3 Cs3

>  <indices>  (831) 
[0, 1, 2]

>  <tasks>  (831) 
probe_placing close_aromatic_ring close_aromatic_ring close_aromatic_ring ring_built fix_Car close_aromatic_ring close_aromatic_ring close_aromatic_ring build_to_Nd0 build_DB_to_Cs2 build_SB_to_Cs2

>  <prot_clashes>  (831) 
2

>  <NBS phar>  (831) 
0.15999999999999998

>  <NBS_non-phar>  (831) 
0.597938060760498

>  <NBS>  (831) 
0.757938060760498

>  <source_stage>  (831) 
scored

>  <source_iter>  (831) 
11

>  <source_parent_mol>  (831) 
2

>  <source_scenario>  (831) 
1 2 4 0 4 9 0 0 1 0 2

>  <source_rank_in_scored_call>  (831) 
30

>  <source_current_task>  (831) 
no_task

>  <scenario>  (831) 
1 2 4 0 4 9 0 0 1 0

>  <protected_ring_attachments>  (831) 
0,5,4,6|5,4,6;1,3,4,6|3,4,6;3,1,0,2|1,0,2;4,5,0,2|5,0,2

>  <current_task>  (831) 
no_task

>  <rotatable_bond_torsions>  (831) 
1,0,2,10;0,2,10,12

$$$$

     RDKit          3D

 14 15  0  0  0  0  0  0  0  0999 V2000
  -28.2660   -7.2460  -31.7620 C   0  0  0  0  0  0  0  0  0  0  0  0
  -27.6680   -6.2420  -32.4290 N   0  0  0  0  0  0  0  0  0  0  0  0
  -28.4500   -8.7550  -32.1380 N   0  0  0  0  0  0  0  0  0  0  0  0
  -27.7760   -5.1000  -31.7640 C   0  0  0  0  0  0  0  0  0  0  0  0
  -28.4800   -5.3940  -30.6120 C   0  0  0  0  0  0  0  0  0  0  0  0
  -28.7800   -6.7210  -30.6130 N   0  0  0  0  0  0  0  0  0  0  0  0
  -28.7920   -4.4460  -29.6590 C   0  0  0  0  0  0  0  0  0  0  0  0
  -28.3740   -3.1800  -29.8940 N   0  0  0  0  0  0  0  0  0  0  0  0
  -27.6870   -2.8770  -31.0090 C   0  0  0  0  0  0  0  0  0  0  0  0
  -27.3610   -3.8030  -31.9800 C   0  0  0  0  0  0  0  0  0  0  0  0
  -28.6120   -9.6740  -31.1270 C   0  0  0  0  0  0  0  0  0  0  0  0
  -28.7780   -9.5010  -29.9350 O   0  0  0  0  0  0  0  0  0  0  0  0
  -28.6150  -11.1480  -31.5430 C   0  0  0  0  0  0  0  0  0  0  0  0
  -29.5630   -4.8030  -28.4130 C   0  0  0  0  0  0  0  0  0  0  0  0
  1  2  2  0
  1  3  1  0
  1  6  1  0
  2  4  1  0
  3 11  1  0
  4 10  1  0
  4  5  2  0
  5  6  1  0
  5  7  1  0
  7  8  2  0
  7 14  1  0
  8  9  1  0
  9 10  2  0
 11 13  1  0
 11 12  2  0
M  END
>  <name>  (832) 
Car Nac Nd0 Car Car Nd0 Car Nac Car Car Cs2 .=O Cs3 Cs3

>  <indices>  (832) 
[0, 1, 2]

>  <tasks>  (832) 
probe_placing close_aromatic_ring close_aromatic_ring close_aromatic_ring ring_built fix_Car close_aromatic_ring close_aromatic_ring close_aromatic_ring build_to_Nd0 build_DB_to_Cs2 build_SB_to_Cs2

>  <prot_clashes>  (832) 
4

>  <NBS phar>  (832) 
0.18

>  <NBS_non-phar>  (832) 
0.5768141065325055

>  <NBS>  (832) 
0.7568141065325056

>  <source_stage>  (832) 
scored

>  <source_iter>  (832) 
11

>  <source_parent_mol>  (832) 
2

>  <source_scenario>  (832) 
1 2 4 0 4 9 0 0 1 0 2

>  <source_rank_in_scored_call>  (832) 
32

>  <source_current_task>  (832) 
no_task

>  <scenario>  (832) 
1 2 4 0 4 9 0 0 1 0

>  <protected_ring_attachments>  (832) 
0,5,4,6|5,4,6;1,3,4,6|3,4,6;3,1,0,2|1,0,2;4,5,0,2|5,0,2

>  <current_task>  (832) 
no_task

>  <rotatable_bond_torsions>  (832) 
1,0,2,10;0,2,10,12

$$$$

     RDKit          3D

 14 15  0  0  0  0  0  0  0  0999 V2000
  -28.4800   -7.2490  -31.6670 C   0  0  0  0  0  0  0  0  0  0  0  0
  -27.7750   -6.3130  -32.3280 N   0  0  0  0  0  0  0  0  0  0  0  0
  -28.7540   -8.7520  -32.0070 N   0  0  0  0  0  0  0  0  0  0  0  0
  -27.8350   -5.1440  -31.7050 C   0  0  0  0  0  0  0  0  0  0  0  0
  -28.6190   -5.3470  -30.5860 C   0  0  0  0  0  0  0  0  0  0  0  0
  -29.0160   -6.6490  -30.5650 N   0  0  0  0  0  0  0  0  0  0  0  0
  -28.9120   -4.3480  -29.6810 C   0  0  0  0  0  0  0  0  0  0  0  0
  -28.3900   -3.1240  -29.9300 N   0  0  0  0  0  0  0  0  0  0  0  0
  -27.6240   -2.9090  -31.0140 C   0  0  0  0  0  0  0  0  0  0  0  0
  -27.3150   -3.8880  -31.9370 C   0  0  0  0  0  0  0  0  0  0  0  0
  -29.0380   -9.6230  -30.9800 C   0  0  0  0  0  0  0  0  0  0  0  0
  -29.2540   -9.3980  -29.8040 O   0  0  0  0  0  0  0  0  0  0  0  0
  -29.1260  -11.1060  -31.3510 C   0  0  0  0  0  0  0  0  0  0  0  0
  -27.7670  -11.6770  -31.8760 C   0  0  0  0  0  0  0  0  0  0  0  0
  1  2  2  0
  1  3  1  0
  1  6  1  0
  2  4  1  0
  3 11  1  0
  4 10  1  0
  4  5  2  0
  5  6  1  0
  5  7  1  0
  7  8  2  0
  8  9  1  0
  9 10  2  0
 11 13  1  0
 11 12  2  0
 13 14  1  0
M  END
>  <name>  (833) 
Car Nac Nd0 Car Car Nd0 Car Nac Car Car Cs2 .=O Cs3 Cs3

>  <indices>  (833) 
[0, 1, 2]

>  <tasks>  (833) 
probe_placing close_aromatic_ring close_aromatic_ring close_aromatic_ring ring_built fix_Car close_aromatic_ring close_aromatic_ring close_aromatic_ring build_to_Nd0 build_DB_to_Cs2 build_SB_to_Cs2

>  <prot_clashes>  (833) 
3

>  <NBS phar>  (833) 
0.15999999999999998

>  <NBS_non-phar>  (833) 
0.5774857657296317

>  <NBS>  (833) 
0.7374857657296316

>  <source_stage>  (833) 
scored

>  <source_iter>  (833) 
11

>  <source_parent_mol>  (833) 
2

>  <source_scenario>  (833) 
1 2 4 0 4 9 0 0 1 0 2

>  <source_rank_in_scored_call>  (833) 
46

>  <source_current_task>  (833) 
no_task

>  <scenario>  (833) 
1 2 4 0 4 9 0 0 1 0

>  <protected_ring_attachments>  (833) 
0,5,4,6|5,4,6;1,3,4,6|3,4,6;3,1,0,2|1,0,2;4,5,0,2|5,0,2

>  <current_task>  (833) 
no_task

>  <rotatable_bond_torsions>  (833) 
1,0,2,10;0,2,10,12

$$$$

     RDKit          3D

 14 15  0  0  0  0  0  0  0  0999 V2000
  -28.4270   -7.2330  -31.7620 C   0  0  0  0  0  0  0  0  0  0  0  0
  -27.7550   -6.2740  -32.4250 N   0  0  0  0  0  0  0  0  0  0  0  0
  -28.7150   -8.7250  -32.1390 N   0  0  0  0  0  0  0  0  0  0  0  0
  -27.7850   -5.1270  -31.7610 C   0  0  0  0  0  0  0  0  0  0  0  0
  -28.5140   -5.3690  -30.6130 C   0  0  0  0  0  0  0  0  0  0  0  0
  -28.9080   -6.6720  -30.6160 N   0  0  0  0  0  0  0  0  0  0  0  0
  -28.7630   -4.4010  -29.6610 C   0  0  0  0  0  0  0  0  0  0  0  0
  -28.2540   -3.1690  -29.8940 N   0  0  0  0  0  0  0  0  0  0  0  0
  -27.5420   -2.9150  -31.0060 C   0  0  0  0  0  0  0  0  0  0  0  0
  -27.2780   -3.8620  -31.9760 C   0  0  0  0  0  0  0  0  0  0  0  0
  -28.9480   -9.6300  -31.1290 C   0  0  0  0  0  0  0  0  0  0  0  0
  -29.1070   -9.4450  -29.9370 O   0  0  0  0  0  0  0  0  0  0  0  0
  -29.0530  -11.1000  -31.5450 C   0  0  0  0  0  0  0  0  0  0  0  0
  -27.6870  -11.8430  -31.6890 C   0  0  0  0  0  0  0  0  0  0  0  0
  1  2  2  0
  1  3  1  0
  1  6  1  0
  2  4  1  0
  3 11  1  0
  4 10  1  0
  4  5  2  0
  5  6  1  0
  5  7  1  0
  7  8  2  0
  8  9  1  0
  9 10  2  0
 11 13  1  0
 11 12  2  0
 13 14  1  0
M  END
>  <name>  (834) 
Car Nac Nd0 Car Car Nd0 Car Nac Car Car Cs2 .=O Cs3 Cs3

>  <indices>  (834) 
[0, 1, 2]

>  <tasks>  (834) 
probe_placing close_aromatic_ring close_aromatic_ring close_aromatic_ring ring_built fix_Car close_aromatic_ring close_aromatic_ring close_aromatic_ring build_to_Nd0 build_DB_to_Cs2 build_SB_to_Cs2

>  <prot_clashes>  (834) 
3

>  <NBS phar>  (834) 
0.13999999999999999

>  <NBS_non-phar>  (834) 
0.5881624221801758

>  <NBS>  (834) 
0.7281624221801758

>  <source_stage>  (834) 
scored

>  <source_iter>  (834) 
11

>  <source_parent_mol>  (834) 
2

>  <source_scenario>  (834) 
1 2 4 0 4 9 0 0 1 0 2

>  <source_rank_in_scored_call>  (834) 
50

>  <source_current_task>  (834) 
no_task

>  <scenario>  (834) 
1 2 4 0 4 9 0 0 1 0

>  <protected_ring_attachments>  (834) 
0,5,4,6|5,4,6;1,3,4,6|3,4,6;3,1,0,2|1,0,2;4,5,0,2|5,0,2

>  <current_task>  (834) 
no_task

>  <rotatable_bond_torsions>  (834) 
1,0,2,10;0,2,10,12

$$$$

     RDKit          3D

 14 15  0  0  0  0  0  0  0  0999 V2000
  -28.3040   -7.2040  -31.6780 C   0  0  0  0  0  0  0  0  0  0  0  0
  -27.7550   -6.1490  -32.3070 N   0  0  0  0  0  0  0  0  0  0  0  0
  -28.4400   -8.6990  -32.1210 N   0  0  0  0  0  0  0  0  0  0  0  0
  -27.8910   -5.0430  -31.5880 C   0  0  0  0  0  0  0  0  0  0  0  0
  -28.5620   -5.4150  -30.4380 C   0  0  0  0  0  0  0  0  0  0  0  0
  -28.8150   -6.7510  -30.4970 N   0  0  0  0  0  0  0  0  0  0  0  0
  -28.8900   -4.5250  -29.4360 C   0  0  0  0  0  0  0  0  0  0  0  0
  -28.5220   -3.2350  -29.6190 N   0  0  0  0  0  0  0  0  0  0  0  0
  -27.8680   -2.8550  -30.7310 C   0  0  0  0  0  0  0  0  0  0  0  0
  -27.5280   -3.7230  -31.7500 C   0  0  0  0  0  0  0  0  0  0  0  0
  -28.5500   -9.6700  -31.1520 C   0  0  0  0  0  0  0  0  0  0  0  0
  -28.7000   -9.5580  -29.9500 O   0  0  0  0  0  0  0  0  0  0  0  0
  -28.5080  -11.1210  -31.6360 C   0  0  0  0  0  0  0  0  0  0  0  0
  -29.3620  -11.9650  -30.7560 C   0  0  0  0  0  0  0  0  0  0  0  0
  1  2  2  0
  1  3  1  0
  1  6  1  0
  2  4  1  0
  3 11  1  0
  4 10  1  0
  4  5  2  0
  5  6  1  0
  5  7  1  0
  7  8  2  0
  8  9  1  0
  9 10  2  0
 11 13  1  0
 11 12  2  0
 13 14  1  0
M  END
>  <name>  (835) 
Car Nac Nd0 Car Car Nd0 Car Nac Car Car Cs2 .=O Cs3 Cs3

>  <indices>  (835) 
[0, 1, 2]

>  <tasks>  (835) 
probe_placing close_aromatic_ring close_aromatic_ring close_aromatic_ring ring_built fix_Car close_aromatic_ring close_aromatic_ring close_aromatic_ring build_to_Nd0 build_DB_to_Cs2 build_SB_to_Cs2

>  <prot_clashes>  (835) 
2

>  <NBS phar>  (835) 
0.13999999999999999

>  <NBS_non-phar>  (835) 
0.5475976126534599

>  <NBS>  (835) 
0.6875976126534599

>  <source_stage>  (835) 
scored

>  <source_iter>  (835) 
11

>  <source_parent_mol>  (835) 
2

>  <source_scenario>  (835) 
1 2 4 0 4 9 0 0 1 0 2

>  <source_rank_in_scored_call>  (835) 
60

>  <source_current_task>  (835) 
no_task

>  <scenario>  (835) 
1 2 4 0 4 9 0 0 1 0

>  <protected_ring_attachments>  (835) 
0,5,4,6|5,4,6;1,3,4,6|3,4,6;3,1,0,2|1,0,2;4,5,0,2|5,0,2

>  <current_task>  (835) 
no_task

>  <rotatable_bond_torsions>  (835) 
1,0,2,10;0,2,10,12

$$$$

     RDKit          3D

 14 15  0  0  0  0  0  0  0  0999 V2000
  -28.3040   -7.2470  -31.7020 C   0  0  0  0  0  0  0  0  0  0  0  0
  -27.6620   -6.2320  -32.3080 N   0  0  0  0  0  0  0  0  0  0  0  0
  -28.4960   -8.7390  -32.1360 N   0  0  0  0  0  0  0  0  0  0  0  0
  -27.7790   -5.1110  -31.6100 C   0  0  0  0  0  0  0  0  0  0  0  0
  -28.5360   -5.4310  -30.4980 C   0  0  0  0  0  0  0  0  0  0  0  0
  -28.8580   -6.7510  -30.5580 N   0  0  0  0  0  0  0  0  0  0  0  0
  -28.8730   -4.5100  -29.5280 C   0  0  0  0  0  0  0  0  0  0  0  0
  -28.4240   -3.2450  -29.7010 N   0  0  0  0  0  0  0  0  0  0  0  0
  -27.6860   -2.9170  -30.7760 C   0  0  0  0  0  0  0  0  0  0  0  0
  -27.3340   -3.8150  -31.7640 C   0  0  0  0  0  0  0  0  0  0  0  0
  -28.7170   -9.6890  -31.1660 C   0  0  0  0  0  0  0  0  0  0  0  0
  -28.9300   -9.5530  -29.9760 O   0  0  0  0  0  0  0  0  0  0  0  0
  -28.7260  -11.1470  -31.6310 C   0  0  0  0  0  0  0  0  0  0  0  0
  -28.0630  -12.0310  -30.5400 C   0  0  0  0  0  0  0  0  0  0  0  0
  1  2  2  0
  1  3  1  0
  1  6  1  0
  2  4  1  0
  3 11  1  0
  4 10  1  0
  4  5  2  0
  5  6  1  0
  5  7  1  0
  7  8  2  0
  8  9  1  0
  9 10  2  0
 11 13  1  0
 11 12  2  0
 13 14  1  0
M  END
>  <name>  (836) 
Car Nac Nd0 Car Car Nd0 Car Nac Car Car Cs2 .=O Cs3 Cs3

>  <indices>  (836) 
[0, 1, 2]

>  <tasks>  (836) 
probe_placing close_aromatic_ring close_aromatic_ring close_aromatic_ring ring_built fix_Car close_aromatic_ring close_aromatic_ring close_aromatic_ring build_to_Nd0 build_DB_to_Cs2 build_SB_to_Cs2

>  <prot_clashes>  (836) 
3

>  <NBS phar>  (836) 
0.12

>  <NBS_non-phar>  (836) 
0.5665576117379325

>  <NBS>  (836) 
0.6865576117379325

>  <source_stage>  (836) 
scored

>  <source_iter>  (836) 
11

>  <source_parent_mol>  (836) 
2

>  <source_scenario>  (836) 
1 2 4 0 4 9 0 0 1 0 2

>  <source_rank_in_scored_call>  (836) 
61

>  <source_current_task>  (836) 
no_task

>  <scenario>  (836) 
1 2 4 0 4 9 0 0 1 0

>  <protected_ring_attachments>  (836) 
0,5,4,6|5,4,6;1,3,4,6|3,4,6;3,1,0,2|1,0,2;4,5,0,2|5,0,2

>  <current_task>  (836) 
no_task

>  <rotatable_bond_torsions>  (836) 
1,0,2,10;0,2,10,12

$$$$

     RDKit          3D

 14 15  0  0  0  0  0  0  0  0999 V2000
  -28.3980   -7.2440  -31.7130 C   0  0  0  0  0  0  0  0  0  0  0  0
  -27.6890   -6.2620  -32.2980 N   0  0  0  0  0  0  0  0  0  0  0  0
  -28.6140   -8.7360  -32.1330 N   0  0  0  0  0  0  0  0  0  0  0  0
  -27.8090   -5.1240  -31.6280 C   0  0  0  0  0  0  0  0  0  0  0  0
  -28.6390   -5.3980  -30.5570 C   0  0  0  0  0  0  0  0  0  0  0  0
  -29.0000   -6.7090  -30.6130 N   0  0  0  0  0  0  0  0  0  0  0  0
  -29.0010   -4.4490  -29.6230 C   0  0  0  0  0  0  0  0  0  0  0  0
  -28.5020   -3.2020  -29.7930 N   0  0  0  0  0  0  0  0  0  0  0  0
  -27.6920   -2.9180  -30.8280 C   0  0  0  0  0  0  0  0  0  0  0  0
  -27.3140   -3.8460  -31.7780 C   0  0  0  0  0  0  0  0  0  0  0  0
  -28.9210   -9.6600  -31.1600 C   0  0  0  0  0  0  0  0  0  0  0  0
  -29.1980   -9.4950  -29.9870 O   0  0  0  0  0  0  0  0  0  0  0  0
  -28.9510  -11.1260  -31.6000 C   0  0  0  0  0  0  0  0  0  0  0  0
  -28.0630  -12.0330  -30.7830 C   0  0  0  0  0  0  0  0  0  0  0  0
  1  2  2  0
  1  3  1  0
  1  6  1  0
  2  4  1  0
  3 11  1  0
  4 10  1  0
  4  5  2  0
  5  6  1  0
  5  7  1  0
  7  8  2  0
  8  9  1  0
  9 10  2  0
 11 13  1  0
 11 12  2  0
 13 14  1  0
M  END
>  <name>  (837) 
Car Nac Nd0 Car Car Nd0 Car Nac Car Car Cs2 .=O Cs3 Cs3

>  <indices>  (837) 
[0, 1, 2]

>  <tasks>  (837) 
probe_placing close_aromatic_ring close_aromatic_ring close_aromatic_ring ring_built fix_Car close_aromatic_ring close_aromatic_ring close_aromatic_ring build_to_Nd0 build_DB_to_Cs2 build_SB_to_Cs2

>  <prot_clashes>  (837) 
2

>  <NBS phar>  (837) 
0.1

>  <NBS_non-phar>  (837) 
0.5849947248186383

>  <NBS>  (837) 
0.6849947248186383

>  <source_stage>  (837) 
scored

>  <source_iter>  (837) 
11

>  <source_parent_mol>  (837) 
2

>  <source_scenario>  (837) 
1 2 4 0 4 9 0 0 1 0 2

>  <source_rank_in_scored_call>  (837) 
62

>  <source_current_task>  (837) 
no_task

>  <scenario>  (837) 
1 2 4 0 4 9 0 0 1 0

>  <protected_ring_attachments>  (837) 
0,5,4,6|5,4,6;1,3,4,6|3,4,6;3,1,0,2|1,0,2;4,5,0,2|5,0,2

>  <current_task>  (837) 
no_task

>  <rotatable_bond_torsions>  (837) 
1,0,2,10;0,2,10,12

$$$$

     RDKit          3D

 14 15  0  0  0  0  0  0  0  0999 V2000
  -28.2960   -7.2250  -31.6880 C   0  0  0  0  0  0  0  0  0  0  0  0
  -27.7470   -6.1710  -32.3180 N   0  0  0  0  0  0  0  0  0  0  0  0
  -28.4280   -8.7220  -32.1270 N   0  0  0  0  0  0  0  0  0  0  0  0
  -27.8880   -5.0640  -31.6030 C   0  0  0  0  0  0  0  0  0  0  0  0
  -28.5620   -5.4340  -30.4550 C   0  0  0  0  0  0  0  0  0  0  0  0
  -28.8120   -6.7700  -30.5110 N   0  0  0  0  0  0  0  0  0  0  0  0
  -28.8950   -4.5400  -29.4580 C   0  0  0  0  0  0  0  0  0  0  0  0
  -28.5290   -3.2510  -29.6430 N   0  0  0  0  0  0  0  0  0  0  0  0
  -27.8720   -2.8730  -30.7540 C   0  0  0  0  0  0  0  0  0  0  0  0
  -27.5260   -3.7430  -31.7690 C   0  0  0  0  0  0  0  0  0  0  0  0
  -28.5390   -9.6900  -31.1550 C   0  0  0  0  0  0  0  0  0  0  0  0
  -28.6930   -9.5750  -29.9540 O   0  0  0  0  0  0  0  0  0  0  0  0
  -28.4920  -11.1430  -31.6340 C   0  0  0  0  0  0  0  0  0  0  0  0
  -29.3380  -11.9990  -30.7990 C   0  0  0  0  0  0  0  0  0  0  0  0
  1  2  2  0
  1  3  1  0
  1  6  1  0
  2  4  1  0
  3 11  1  0
  4 10  1  0
  4  5  2  0
  5  6  1  0
  5  7  1  0
  7  8  2  0
  8  9  1  0
  9 10  2  0
 11 13  1  0
 11 12  2  0
 13 14  1  0
M  END
>  <name>  (838) 
Car Nac Nd0 Car Car Nd0 Car Nac Car Car Cs2 .=O Cs3 Cs3

>  <indices>  (838) 
[0, 1, 2]

>  <tasks>  (838) 
probe_placing close_aromatic_ring close_aromatic_ring close_aromatic_ring ring_built fix_Car close_aromatic_ring close_aromatic_ring close_aromatic_ring build_to_Nd0 build_DB_to_Cs2 build_SB_to_Cs2

>  <prot_clashes>  (838) 
2

>  <NBS phar>  (838) 
0.13999999999999999

>  <NBS_non-phar>  (838) 
0.5383058956691197

>  <NBS>  (838) 
0.6783058956691197

>  <source_stage>  (838) 
scored

>  <source_iter>  (838) 
11

>  <source_parent_mol>  (838) 
2

>  <source_scenario>  (838) 
1 2 4 0 4 9 0 0 1 0 2

>  <source_rank_in_scored_call>  (838) 
63

>  <source_current_task>  (838) 
no_task

>  <scenario>  (838) 
1 2 4 0 4 9 0 0 1 0

>  <protected_ring_attachments>  (838) 
0,5,4,6|5,4,6;1,3,4,6|3,4,6;3,1,0,2|1,0,2;4,5,0,2|5,0,2

>  <current_task>  (838) 
no_task

>  <rotatable_bond_torsions>  (838) 
1,0,2,10;0,2,10,12

$$$$

     RDKit          3D

 14 15  0  0  0  0  0  0  0  0999 V2000
  -28.2790   -7.2570  -31.6980 C   0  0  0  0  0  0  0  0  0  0  0  0
  -27.6880   -6.2190  -32.3150 N   0  0  0  0  0  0  0  0  0  0  0  0
  -28.4380   -8.7510  -32.1380 N   0  0  0  0  0  0  0  0  0  0  0  0
  -27.8190   -5.1070  -31.6060 C   0  0  0  0  0  0  0  0  0  0  0  0
  -28.5310   -5.4570  -30.4740 C   0  0  0  0  0  0  0  0  0  0  0  0
  -28.8130   -6.7870  -30.5350 N   0  0  0  0  0  0  0  0  0  0  0  0
  -28.8660   -4.5540  -29.4870 C   0  0  0  0  0  0  0  0  0  0  0  0
  -28.4630   -3.2740  -29.6640 N   0  0  0  0  0  0  0  0  0  0  0  0
  -27.7690   -2.9160  -30.7580 C   0  0  0  0  0  0  0  0  0  0  0  0
  -27.4190   -3.7960  -31.7630 C   0  0  0  0  0  0  0  0  0  0  0  0
  -28.5990   -9.7140  -31.1680 C   0  0  0  0  0  0  0  0  0  0  0  0
  -28.7800   -9.5930  -29.9720 O   0  0  0  0  0  0  0  0  0  0  0  0
  -28.5770  -11.1690  -31.6440 C   0  0  0  0  0  0  0  0  0  0  0  0
  -28.0730  -12.1910  -30.6470 C   0  0  0  0  0  0  0  0  0  0  0  0
  1  2  2  0
  1  3  1  0
  1  6  1  0
  2  4  1  0
  3 11  1  0
  4 10  1  0
  4  5  2  0
  5  6  1  0
  5  7  1  0
  7  8  2  0
  8  9  1  0
  9 10  2  0
 11 13  1  0
 11 12  2  0
 13 14  1  0
M  END
>  <name>  (839) 
Car Nac Nd0 Car Car Nd0 Car Nac Car Car Cs2 .=O Cs3 Cs3

>  <indices>  (839) 
[0, 1, 2]

>  <tasks>  (839) 
probe_placing close_aromatic_ring close_aromatic_ring close_aromatic_ring ring_built fix_Car close_aromatic_ring close_aromatic_ring close_aromatic_ring build_to_Nd0 build_DB_to_Cs2 build_SB_to_Cs2

>  <prot_clashes>  (839) 
1

>  <NBS phar>  (839) 
0.12

>  <NBS_non-phar>  (839) 
0.5378720760345459

>  <NBS>  (839) 
0.6578720760345459

>  <source_stage>  (839) 
scored

>  <source_iter>  (839) 
11

>  <source_parent_mol>  (839) 
2

>  <source_scenario>  (839) 
1 2 4 0 4 9 0 0 1 0 2

>  <source_rank_in_scored_call>  (839) 
71

>  <source_current_task>  (839) 
no_task

>  <scenario>  (839) 
1 2 4 0 4 9 0 0 1 0

>  <protected_ring_attachments>  (839) 
0,5,4,6|5,4,6;1,3,4,6|3,4,6;3,1,0,2|1,0,2;4,5,0,2|5,0,2

>  <current_task>  (839) 
no_task

>  <rotatable_bond_torsions>  (839) 
1,0,2,10;0,2,10,12

$$$$

     RDKit          3D

 14 15  0  0  0  0  0  0  0  0999 V2000
  -28.2010   -7.2000  -31.4780 C   0  0  0  0  0  0  0  0  0  0  0  0
  -27.6700   -6.1830  -32.1800 N   0  0  0  0  0  0  0  0  0  0  0  0
  -28.3520   -8.7170  -31.8340 N   0  0  0  0  0  0  0  0  0  0  0  0
  -27.7830   -5.0390  -31.5200 C   0  0  0  0  0  0  0  0  0  0  0  0
  -28.4200   -5.3460  -30.3320 C   0  0  0  0  0  0  0  0  0  0  0  0
  -28.6760   -6.6820  -30.3100 N   0  0  0  0  0  0  0  0  0  0  0  0
  -28.7170   -4.4000  -29.3720 C   0  0  0  0  0  0  0  0  0  0  0  0
  -28.3540   -3.1240  -29.6360 N   0  0  0  0  0  0  0  0  0  0  0  0
  -27.7330   -2.8080  -30.7870 C   0  0  0  0  0  0  0  0  0  0  0  0
  -27.4230   -3.7310  -31.7660 C   0  0  0  0  0  0  0  0  0  0  0  0
  -28.4340   -9.6330  -30.8100 C   0  0  0  0  0  0  0  0  0  0  0  0
  -28.5470   -9.4550  -29.6110 O   0  0  0  0  0  0  0  0  0  0  0  0
  -28.4070  -11.1090  -31.2130 C   0  0  0  0  0  0  0  0  0  0  0  0
  -29.6770  -11.8490  -30.8750 C   0  0  0  0  0  0  0  0  0  0  0  0
  1  2  2  0
  1  3  1  0
  1  6  1  0
  2  4  1  0
  3 11  1  0
  4 10  1  0
  4  5  2  0
  5  6  1  0
  5  7  1  0
  7  8  2  0
  8  9  1  0
  9 10  2  0
 11 13  1  0
 11 12  2  0
 13 14  1  0
M  END
>  <name>  (840) 
Car Nac Nd0 Car Car Nd0 Car Nac Car Car Cs2 .=O Cs3 Cs3

>  <indices>  (840) 
[0, 1, 2]

>  <tasks>  (840) 
probe_placing close_aromatic_ring close_aromatic_ring close_aromatic_ring ring_built fix_Car close_aromatic_ring close_aromatic_ring close_aromatic_ring build_to_Nd0 build_DB_to_Cs2 build_SB_to_Cs2

>  <prot_clashes>  (840) 
1

>  <NBS phar>  (840) 
0.1

>  <NBS_non-phar>  (840) 
0.507000276020595

>  <NBS>  (840) 
0.607000276020595

>  <source_stage>  (840) 
scored

>  <source_iter>  (840) 
11

>  <source_parent_mol>  (840) 
2

>  <source_scenario>  (840) 
1 2 4 0 4 9 0 0 1 0 2

>  <source_rank_in_scored_call>  (840) 
84

>  <source_current_task>  (840) 
no_task

>  <scenario>  (840) 
1 2 4 0 4 9 0 0 1 0

>  <protected_ring_attachments>  (840) 
0,5,4,6|5,4,6;1,3,4,6|3,4,6;3,1,0,2|1,0,2;4,5,0,2|5,0,2

>  <current_task>  (840) 
no_task

>  <rotatable_bond_torsions>  (840) 
1,0,2,10;0,2,10,12

$$$$

     RDKit          3D

 17 19  0  0  0  0  0  0  0  0999 V2000
  -28.2150   -7.5660  -31.1790 C   0  0  0  0  0  0  0  0  0  0  0  0
  -27.7420   -6.5080  -31.8640 N   0  0  0  0  0  0  0  0  0  0  0  0
  -27.9440   -8.9970  -31.6280 N   0  0  0  0  0  0  0  0  0  0  0  0
  -28.0330   -5.3980  -31.1750 C   0  0  0  0  0  0  0  0  0  0  0  0
  -28.7020   -5.8090  -30.0400 C   0  0  0  0  0  0  0  0  0  0  0  0
  -28.8160   -7.1680  -30.0420 N   0  0  0  0  0  0  0  0  0  0  0  0
  -27.7840   -4.0840  -31.4230 N   0  0  0  0  0  0  0  0  0  0  0  0
  -28.1940   -3.1580  -30.5480 C   0  0  0  0  0  0  0  0  0  0  0  0
  -28.8640   -3.5200  -29.4000 C   0  0  0  0  0  0  0  0  0  0  0  0
  -29.1230   -4.8510  -29.1430 C   0  0  0  0  0  0  0  0  0  0  0  0
  -28.3640   -9.9280  -30.5920 C   0  0  0  0  0  0  0  0  0  0  0  0
  -29.3850  -10.8020  -30.8870 C   0  0  0  0  0  0  0  0  0  0  0  0
  -29.8700  -11.7380  -29.9970 C   0  0  0  0  0  0  0  0  0  0  0  0
  -29.2950  -11.7920  -28.7460 C   0  0  0  0  0  0  0  0  0  0  0  0
  -28.2750  -10.9110  -28.4650 C   0  0  0  0  0  0  0  0  0  0  0  0
  -27.8170  -10.0040  -29.3550 N   0  0  0  0  0  0  0  0  0  0  0  0
  -29.9530  -10.7390  -32.1380 O   0  0  0  0  0  0  0  0  0  0  0  0
  1  2  2  0
  1  3  1  0
  1  6  1  0
  2  4  1  0
  3 11  1  0
  4  7  2  0
  4  5  1  0
  5  6  1  0
  5 10  2  0
  7  8  1  0
  8  9  2  0
  9 10  1  0
 11 12  2  0
 11 16  1  0
 12 17  1  0
 12 13  1  0
 13 14  2  0
 14 15  1  0
 15 16  2  0
M  CHG  1  17  -1
M  END
>  <name>  (841) 
Car Nac Nd0 Car Car Nd0 Nac Car Car Car Car Car Car Car Car Nac .=O

>  <indices>  (841) 
[0, 1, 2]

>  <tasks>  (841) 
probe_placing close_aromatic_ring close_aromatic_ring close_aromatic_ring ring_built fix_Car close_aromatic_ring close_aromatic_ring close_aromatic_ring build_to_Nd0 close_aromatic_ring close_aromatic_ring close_aromatic_ring close_aromatic_ring close_aromatic_ring

>  <prot_clashes>  (841) 
1

>  <NBS phar>  (841) 
0.34

>  <NBS_non-phar>  (841) 
0.658564006581026

>  <NBS>  (841) 
0.998564006581026

>  <source_stage>  (841) 
scored

>  <source_iter>  (841) 
14

>  <source_parent_mol>  (841) 
0

>  <source_scenario>  (841) 
1 2 4 0 6 0 1 0 0 5 3 2 0 0

>  <source_rank_in_scored_call>  (841) 
1

>  <source_current_task>  (841) 
build_orthosubstituent_to_rotated_aniline_Nd0

>  <scenario>  (841) 
1 2 4 0 6 0 1 0 0 5 3 2 0

>  <protected_ring_attachments>  (841) 
0,1,3,6|1,3,6;3,1,0,2|1,0,2;4,5,0,2|5,0,2;5,4,3,6|4,3,6;12,11,10,2|11,10,2;14,15,10,2|15,10,2

>  <current_task>  (841) 
no_task

>  <rotatable_bond_torsions>  (841) 
1,0,2,10;0,2,10,11

>  <rotated_aniline_Nd0_dihedral>  (841) 
116.4

>  <rotated_aniline_Nd0_tolerance>  (841) 
60.0

>  <rotated_aniline_Nd0_context>  (841) 
diarylamine

>  <rotated_aniline_Nd0_substituent_idx>  (841) 
0

>  <rotated_aniline_Nd0_ring>  (841) 
11 12 13 14 15 10

>  <flag ortho>  (841) 


$$$$

     RDKit          3D

 17 19  0  0  0  0  0  0  0  0999 V2000
  -27.9210   -7.3880  -30.7870 C   0  0  0  0  0  0  0  0  0  0  0  0
  -27.5020   -6.3870  -31.5840 N   0  0  0  0  0  0  0  0  0  0  0  0
  -27.5580   -8.8400  -31.0680 N   0  0  0  0  0  0  0  0  0  0  0  0
  -27.8680   -5.2260  -31.0280 C   0  0  0  0  0  0  0  0  0  0  0  0
  -28.5290   -5.5470  -29.8600 C   0  0  0  0  0  0  0  0  0  0  0  0
  -28.5630   -6.9010  -29.7090 N   0  0  0  0  0  0  0  0  0  0  0  0
  -27.6950   -3.9360  -31.4220 N   0  0  0  0  0  0  0  0  0  0  0  0
  -28.1730   -2.9440  -30.6610 C   0  0  0  0  0  0  0  0  0  0  0  0
  -28.8380   -3.2130  -29.4850 C   0  0  0  0  0  0  0  0  0  0  0  0
  -29.0220   -4.5210  -29.0810 C   0  0  0  0  0  0  0  0  0  0  0  0
  -27.9380   -9.6730  -29.9370 C   0  0  0  0  0  0  0  0  0  0  0  0
  -28.9000  -10.6350  -30.1400 C   0  0  0  0  0  0  0  0  0  0  0  0
  -29.3430  -11.4930  -29.1530 C   0  0  0  0  0  0  0  0  0  0  0  0
  -28.7850  -11.3700  -27.8990 C   0  0  0  0  0  0  0  0  0  0  0  0
  -27.8240  -10.4020  -27.7120 C   0  0  0  0  0  0  0  0  0  0  0  0
  -27.4070   -9.5750  -28.6940 N   0  0  0  0  0  0  0  0  0  0  0  0
  -29.5050  -10.7600  -31.5170 C   0  0  0  0  0  0  0  0  0  0  0  0
  1  2  2  0
  1  3  1  0
  1  6  1  0
  2  4  1  0
  3 11  1  0
  4  7  2  0
  4  5  1  0
  5  6  1  0
  5 10  2  0
  7  8  1  0
  8  9  2  0
  9 10  1  0
 11 12  2  0
 11 16  1  0
 12 17  1  0
 12 13  1  0
 13 14  2  0
 14 15  1  0
 15 16  2  0
M  END
>  <name>  (842) 
Car Nac Nd0 Car Car Nd0 Nac Car Car Car Car Car Car Car Car Nac Cs3

>  <indices>  (842) 
[0, 1, 2]

>  <tasks>  (842) 
probe_placing close_aromatic_ring close_aromatic_ring close_aromatic_ring ring_built fix_Car close_aromatic_ring close_aromatic_ring close_aromatic_ring build_to_Nd0 close_aromatic_ring close_aromatic_ring close_aromatic_ring close_aromatic_ring close_aromatic_ring

>  <prot_clashes>  (842) 
0

>  <NBS phar>  (842) 
0.25999999999999995

>  <NBS_non-phar>  (842) 
0.46400757396922393

>  <NBS>  (842) 
0.7240075739692239

>  <source_stage>  (842) 
scored

>  <source_iter>  (842) 
14

>  <source_parent_mol>  (842) 
0

>  <source_scenario>  (842) 
1 2 4 0 6 0 1 0 0 5 3 2 0 0

>  <source_rank_in_scored_call>  (842) 
12

>  <source_current_task>  (842) 
build_orthosubstituent_to_rotated_aniline_Nd0

>  <scenario>  (842) 
1 2 4 0 6 0 1 0 0 5 3 2 0

>  <protected_ring_attachments>  (842) 
0,1,3,6|1,3,6;3,1,0,2|1,0,2;4,5,0,2|5,0,2;5,4,3,6|4,3,6;12,11,10,2|11,10,2;14,15,10,2|15,10,2

>  <current_task>  (842) 
no_task

>  <rotatable_bond_torsions>  (842) 
1,0,2,10;0,2,10,11

>  <rotated_aniline_Nd0_dihedral>  (842) 
116.4

>  <rotated_aniline_Nd0_tolerance>  (842) 
60.0

>  <rotated_aniline_Nd0_context>  (842) 
diarylamine

>  <rotated_aniline_Nd0_substituent_idx>  (842) 
0

>  <rotated_aniline_Nd0_ring>  (842) 
11 12 13 14 15 10

>  <flag ortho>  (842) 


$$$$

     RDKit          3D

 16 18  0  0  0  0  0  0  0  0999 V2000
  -28.7000   -8.3990  -31.3910 C   0  0  0  0  0  0  0  0  0  0  0  0
  -28.5760   -7.2240  -32.0400 N   0  0  0  0  0  0  0  0  0  0  0  0
  -28.6350   -9.7310  -32.1270 N   0  0  0  0  0  0  0  0  0  0  0  0
  -28.5520   -6.2430  -31.1280 C   0  0  0  0  0  0  0  0  0  0  0  0
  -28.6660   -6.8530  -29.8970 C   0  0  0  0  0  0  0  0  0  0  0  0
  -28.7600   -8.2030  -30.0600 N   0  0  0  0  0  0  0  0  0  0  0  0
  -28.4420   -4.8930  -31.2510 N   0  0  0  0  0  0  0  0  0  0  0  0
  -28.4470   -4.1290  -30.1550 C   0  0  0  0  0  0  0  0  0  0  0  0
  -28.5580   -4.6900  -28.9020 C   0  0  0  0  0  0  0  0  0  0  0  0
  -28.6710   -6.0600  -28.7690 C   0  0  0  0  0  0  0  0  0  0  0  0
  -28.9010  -10.8750  -31.4700 C   0  0  0  0  0  0  0  0  0  0  0  0
  -27.9220  -11.8440  -31.4190 C   0  0  0  0  0  0  0  0  0  0  0  0
  -28.0870  -13.0500  -30.7790 C   0  0  0  0  0  0  0  0  0  0  0  0
  -29.3250  -13.2570  -30.1670 C   0  0  0  0  0  0  0  0  0  0  0  0
  -30.3200  -12.2780  -30.2180 C   0  0  0  0  0  0  0  0  0  0  0  0
  -30.0760  -11.1150  -30.8700 N   0  0  0  0  0  0  0  0  0  0  0  0
  1  3  1  0
  1  2  2  0
  1  6  1  0
  2  4  1  0
  3 11  1  0
  4  7  2  0
  4  5  1  0
  5  6  1  0
  5 10  2  0
  7  8  1  0
  8  9  2  0
  9 10  1  0
 11 12  2  0
 11 16  1  0
 12 13  1  0
 13 14  2  0
 14 15  1  0
 15 16  2  0
M  END
>  <name>  (843) 
Car Nac Nd0 Car Car Nd0 Nac Car Car Car Car Car Car Car Car Nac

>  <indices>  (843) 
[0, 1, 2]

>  <tasks>  (843) 
probe_placing close_aromatic_ring close_aromatic_ring close_aromatic_ring ring_built fix_Car close_aromatic_ring close_aromatic_ring close_aromatic_ring build_to_Nd0 close_aromatic_ring close_aromatic_ring close_aromatic_ring close_aromatic_ring

>  <prot_clashes>  (843) 
1

>  <NBS phar>  (843) 
0.12

>  <NBS_non-phar>  (843) 
0.5187958478927612

>  <NBS>  (843) 
0.6387958478927612

>  <source_stage>  (843) 
scored

>  <source_iter>  (843) 
13

>  <source_parent_mol>  (843) 
2

>  <source_scenario>  (843) 
1 2 4 0 6 0 1 0 1 1 1 2 2

>  <source_rank_in_scored_call>  (843) 
0

>  <source_current_task>  (843) 
close_aromatic_ring

>  <scenario>  (843) 
1 2 4 0 6 0 1 0 1 1 1 2

>  <protected_ring_attachments>  (843) 
0,1,3,6|1,3,6;3,1,0,2|1,0,2;4,5,0,2|5,0,2;5,4,3,6|4,3,6

>  <current_task>  (843) 
no_task

>  <rotatable_bond_torsions>  (843) 
1,0,2,10;0,2,10,11;10,11,12,13

$$$$

     RDKit          3D

 16 18  0  0  0  0  0  0  0  0999 V2000
  -28.6470   -8.0760  -31.3550 C   0  0  0  0  0  0  0  0  0  0  0  0
  -28.4750   -6.9130  -32.0140 N   0  0  0  0  0  0  0  0  0  0  0  0
  -28.5860   -9.4190  -32.0710 N   0  0  0  0  0  0  0  0  0  0  0  0
  -28.4620   -5.9200  -31.1150 C   0  0  0  0  0  0  0  0  0  0  0  0
  -28.6310   -6.5100  -29.8810 C   0  0  0  0  0  0  0  0  0  0  0  0
  -28.7480   -7.8600  -30.0300 N   0  0  0  0  0  0  0  0  0  0  0  0
  -28.3190   -4.5740  -31.2520 N   0  0  0  0  0  0  0  0  0  0  0  0
  -28.3450   -3.7950  -30.1670 C   0  0  0  0  0  0  0  0  0  0  0  0
  -28.5110   -4.3370  -28.9110 C   0  0  0  0  0  0  0  0  0  0  0  0
  -28.6580   -5.7030  -28.7640 C   0  0  0  0  0  0  0  0  0  0  0  0
  -28.8870  -10.5470  -31.4050 C   0  0  0  0  0  0  0  0  0  0  0  0
  -27.9270  -11.5350  -31.3170 C   0  0  0  0  0  0  0  0  0  0  0  0
  -28.1720  -12.7060  -30.6710 C   0  0  0  0  0  0  0  0  0  0  0  0
  -29.4270  -12.8830  -30.0960 C   0  0  0  0  0  0  0  0  0  0  0  0
  -30.4000  -11.8820  -30.1850 C   0  0  0  0  0  0  0  0  0  0  0  0
  -30.1390  -10.7040  -30.8410 C   0  0  0  0  0  0  0  0  0  0  0  0
  1  3  1  0
  1  2  2  0
  1  6  1  0
  2  4  1  0
  3 11  1  0
  4  7  2  0
  4  5  1  0
  5  6  1  0
  5 10  2  0
  7  8  1  0
  8  9  2  0
  9 10  1  0
 11 12  2  0
 11 16  1  0
 12 13  1  0
 13 14  2  0
 14 15  1  0
 15 16  2  0
M  END
>  <name>  (844) 
Car Nac Nd0 Car Car Nd0 Nac Car Car Car Car Car Car Car Car Car

>  <indices>  (844) 
[0, 1, 2]

>  <tasks>  (844) 
probe_placing close_aromatic_ring close_aromatic_ring close_aromatic_ring ring_built fix_Car close_aromatic_ring close_aromatic_ring close_aromatic_ring build_to_Nd0 close_aromatic_ring close_aromatic_ring close_aromatic_ring close_aromatic_ring

>  <prot_clashes>  (844) 
4

>  <NBS phar>  (844) 
0.13999999999999999

>  <NBS_non-phar>  (844) 
0.4074000120162964

>  <NBS>  (844) 
0.5474000120162964

>  <source_stage>  (844) 
scored

>  <source_iter>  (844) 
13

>  <source_parent_mol>  (844) 
2

>  <source_scenario>  (844) 
1 2 4 0 6 0 1 0 1 1 1 2 2

>  <source_rank_in_scored_call>  (844) 
1

>  <source_current_task>  (844) 
close_aromatic_ring

>  <scenario>  (844) 
1 2 4 0 6 0 1 0 1 1 1 2

>  <protected_ring_attachments>  (844) 
0,1,3,6|1,3,6;3,1,0,2|1,0,2;4,5,0,2|5,0,2;5,4,3,6|4,3,6

>  <current_task>  (844) 
no_task

>  <rotatable_bond_torsions>  (844) 
1,0,2,10;0,2,10,11;10,11,12,13

$$$$

     RDKit          3D

 17 19  0  0  0  0  0  0  0  0999 V2000
  -28.5840   -8.4660  -31.3510 C   0  0  0  0  0  0  0  0  0  0  0  0
  -28.2750   -7.4150  -32.1380 N   0  0  0  0  0  0  0  0  0  0  0  0
  -28.5050   -9.8990  -31.8620 N   0  0  0  0  0  0  0  0  0  0  0  0
  -28.3190   -6.3050  -31.3890 C   0  0  0  0  0  0  0  0  0  0  0  0
  -28.6650   -6.7070  -30.1170 C   0  0  0  0  0  0  0  0  0  0  0  0
  -28.8330   -8.0590  -30.0920 N   0  0  0  0  0  0  0  0  0  0  0  0
  -28.0910   -4.9990  -31.6910 N   0  0  0  0  0  0  0  0  0  0  0  0
  -28.2080   -4.0720  -30.7350 C   0  0  0  0  0  0  0  0  0  0  0  0
  -28.5510   -4.4220  -29.4480 C   0  0  0  0  0  0  0  0  0  0  0  0
  -28.7840   -5.7470  -29.1340 C   0  0  0  0  0  0  0  0  0  0  0  0
  -28.9530  -10.9100  -31.0950 C   0  0  0  0  0  0  0  0  0  0  0  0
  -28.0680  -11.9060  -30.7420 C   0  0  0  0  0  0  0  0  0  0  0  0
  -28.4180  -12.9870  -29.9670 C   0  0  0  0  0  0  0  0  0  0  0  0
  -29.7470  -13.0330  -29.5410 C   0  0  0  0  0  0  0  0  0  0  0  0
  -30.6470  -12.0260  -29.8980 C   0  0  0  0  0  0  0  0  0  0  0  0
  -30.2210  -10.9940  -30.6660 N   0  0  0  0  0  0  0  0  0  0  0  0
  -28.6720   -3.3600  -28.3830 C   0  0  0  0  0  0  0  0  0  0  0  0
  1  2  2  0
  1  3  1  0
  1  6  1  0
  2  4  1  0
  3 11  1  0
  4  7  2  0
  4  5  1  0
  5  6  1  0
  5 10  2  0
  7  8  1  0
  8  9  2  0
  9 10  1  0
  9 17  1  0
 11 12  2  0
 11 16  1  0
 12 13  1  0
 13 14  2  0
 14 15  1  0
 15 16  2  0
M  END
>  <name>  (845) 
Car Nac Nd0 Car Car Nd0 Nac Car Car Car Car Car Car Car Car Nac Cs3

>  <indices>  (845) 
[0, 1, 2]

>  <tasks>  (845) 
probe_placing close_aromatic_ring close_aromatic_ring close_aromatic_ring ring_built fix_Car close_aromatic_ring close_aromatic_ring close_aromatic_ring build_to_Nd0 close_aromatic_ring close_aromatic_ring close_aromatic_ring close_aromatic_ring close_aromatic_ring

>  <prot_clashes>  (845) 
2

>  <NBS phar>  (845) 
0.36000000000000004

>  <NBS_non-phar>  (845) 
0.5234683541690602

>  <NBS>  (845) 
0.8834683541690602

>  <source_stage>  (845) 
scored

>  <source_iter>  (845) 
14

>  <source_parent_mol>  (845) 
0

>  <source_scenario>  (845) 
1 2 4 0 6 0 1 0 1 1 1 2 2 0

>  <source_rank_in_scored_call>  (845) 
9

>  <source_current_task>  (845) 
no_task

>  <scenario>  (845) 
1 2 4 0 6 0 1 0 1 1 1 2 2

>  <protected_ring_attachments>  (845) 
0,1,3,6|1,3,6;3,1,0,2|1,0,2;4,5,0,2|5,0,2;5,4,3,6|4,3,6;12,11,10,2|11,10,2;14,15,10,2|15,10,2

>  <current_task>  (845) 
no_task

>  <rotatable_bond_torsions>  (845) 
1,0,2,10;0,2,10,11

$$$$

     RDKit          3D

 17 19  0  0  0  0  0  0  0  0999 V2000
  -28.5800   -8.6850  -31.6900 C   0  0  0  0  0  0  0  0  0  0  0  0
  -28.4530   -7.5550  -32.4130 N   0  0  0  0  0  0  0  0  0  0  0  0
  -28.5270  -10.0620  -32.3400 N   0  0  0  0  0  0  0  0  0  0  0  0
  -28.4180   -6.5180  -31.5650 C   0  0  0  0  0  0  0  0  0  0  0  0
  -28.5280   -7.0480  -30.2970 C   0  0  0  0  0  0  0  0  0  0  0  0
  -28.6310   -8.4050  -30.3740 N   0  0  0  0  0  0  0  0  0  0  0  0
  -28.3010   -5.1790  -31.7740 N   0  0  0  0  0  0  0  0  0  0  0  0
  -28.2950   -4.3470  -30.7280 C   0  0  0  0  0  0  0  0  0  0  0  0
  -28.4010   -4.8270  -29.4420 C   0  0  0  0  0  0  0  0  0  0  0  0
  -28.5210   -6.1850  -29.2220 C   0  0  0  0  0  0  0  0  0  0  0  0
  -28.7960  -11.1600  -31.6110 C   0  0  0  0  0  0  0  0  0  0  0  0
  -27.8220  -12.1300  -31.5040 C   0  0  0  0  0  0  0  0  0  0  0  0
  -27.9900  -13.2920  -30.7880 C   0  0  0  0  0  0  0  0  0  0  0  0
  -29.2250  -13.4520  -30.1570 C   0  0  0  0  0  0  0  0  0  0  0  0
  -30.2150  -12.4720  -30.2640 C   0  0  0  0  0  0  0  0  0  0  0  0
  -29.9680  -11.3540  -30.9900 N   0  0  0  0  0  0  0  0  0  0  0  0
  -28.6450   -6.7200  -27.8160 C   0  0  0  0  0  0  0  0  0  0  0  0
  1  2  2  0
  1  3  1  0
  1  6  1  0
  2  4  1  0
  3 11  1  0
  4  7  2  0
  4  5  1  0
  5  6  1  0
  5 10  2  0
  7  8  1  0
  8  9  2  0
  9 10  1  0
 10 17  1  0
 11 12  2  0
 11 16  1  0
 12 13  1  0
 13 14  2  0
 14 15  1  0
 15 16  2  0
M  END
>  <name>  (846) 
Car Nac Nd0 Car Car Nd0 Nac Car Car Car Car Car Car Car Car Nac Cs3

>  <indices>  (846) 
[0, 1, 2]

>  <tasks>  (846) 
probe_placing close_aromatic_ring close_aromatic_ring close_aromatic_ring ring_built fix_Car close_aromatic_ring close_aromatic_ring close_aromatic_ring build_to_Nd0 close_aromatic_ring close_aromatic_ring close_aromatic_ring close_aromatic_ring close_aromatic_ring

>  <prot_clashes>  (846) 
6

>  <NBS phar>  (846) 
0.13999999999999999

>  <NBS_non-phar>  (846) 
0.4959108689252068

>  <NBS>  (846) 
0.6359108689252068

>  <source_stage>  (846) 
scored

>  <source_iter>  (846) 
14

>  <source_parent_mol>  (846) 
0

>  <source_scenario>  (846) 
1 2 4 0 6 0 1 0 1 1 1 2 2 0

>  <source_rank_in_scored_call>  (846) 
24

>  <source_current_task>  (846) 
no_task

>  <scenario>  (846) 
1 2 4 0 6 0 1 0 1 1 1 2 2

>  <protected_ring_attachments>  (846) 
0,1,3,6|1,3,6;3,1,0,2|1,0,2;4,5,0,2|5,0,2;5,4,3,6|4,3,6;12,11,10,2|11,10,2;14,15,10,2|15,10,2

>  <current_task>  (846) 
no_task

>  <rotatable_bond_torsions>  (846) 
1,0,2,10;0,2,10,11

$$$$

     RDKit          3D

 17 19  0  0  0  0  0  0  0  0999 V2000
  -28.7210   -8.4280  -31.3780 C   0  0  0  0  0  0  0  0  0  0  0  0
  -28.5620   -7.2750  -32.0580 N   0  0  0  0  0  0  0  0  0  0  0  0
  -28.6560   -9.7820  -32.0730 N   0  0  0  0  0  0  0  0  0  0  0  0
  -28.5470   -6.2680  -31.1750 C   0  0  0  0  0  0  0  0  0  0  0  0
  -28.7040   -6.8390  -29.9300 C   0  0  0  0  0  0  0  0  0  0  0  0
  -28.8130   -8.1920  -30.0560 N   0  0  0  0  0  0  0  0  0  0  0  0
  -28.4140   -4.9240  -31.3350 N   0  0  0  0  0  0  0  0  0  0  0  0
  -28.4370   -4.1270  -30.2630 C   0  0  0  0  0  0  0  0  0  0  0  0
  -28.5900   -4.6490  -28.9970 C   0  0  0  0  0  0  0  0  0  0  0  0
  -28.7270   -6.0130  -28.8270 C   0  0  0  0  0  0  0  0  0  0  0  0
  -28.9570  -10.9020  -31.3900 C   0  0  0  0  0  0  0  0  0  0  0  0
  -27.9940  -11.8830  -31.2840 C   0  0  0  0  0  0  0  0  0  0  0  0
  -28.1940  -13.0670  -30.6130 C   0  0  0  0  0  0  0  0  0  0  0  0
  -29.4510  -13.2380  -30.0290 C   0  0  0  0  0  0  0  0  0  0  0  0
  -30.4300  -12.2470  -30.1360 C   0  0  0  0  0  0  0  0  0  0  0  0
  -30.1510  -11.1080  -30.8150 N   0  0  0  0  0  0  0  0  0  0  0  0
  -31.7840  -12.4430  -29.5010 C   0  0  0  0  0  0  0  0  0  0  0  0
  1  3  1  0
  1  2  2  0
  1  6  1  0
  2  4  1  0
  3 11  1  0
  4  7  2  0
  4  5  1  0
  5  6  1  0
  5 10  2  0
  7  8  1  0
  8  9  2  0
  9 10  1  0
 11 12  2  0
 11 16  1  0
 12 13  1  0
 13 14  2  0
 14 15  1  0
 15 16  2  0
 15 17  1  0
M  END
>  <name>  (847) 
Car Nac Nd0 Car Car Nd0 Nac Car Car Car Car Car Car Car Car Nac Cs3

>  <indices>  (847) 
[0, 1, 2]

>  <tasks>  (847) 
probe_placing close_aromatic_ring close_aromatic_ring close_aromatic_ring ring_built fix_Car close_aromatic_ring close_aromatic_ring close_aromatic_ring build_to_Nd0 close_aromatic_ring close_aromatic_ring close_aromatic_ring close_aromatic_ring close_aromatic_ring

>  <prot_clashes>  (847) 
2

>  <NBS phar>  (847) 
0.13999999999999999

>  <NBS_non-phar>  (847) 
0.4724688249475816

>  <NBS>  (847) 
0.6124688249475816

>  <source_stage>  (847) 
scored

>  <source_iter>  (847) 
14

>  <source_parent_mol>  (847) 
0

>  <source_scenario>  (847) 
1 2 4 0 6 0 1 0 1 1 1 2 2 0

>  <source_rank_in_scored_call>  (847) 
31

>  <source_current_task>  (847) 
no_task

>  <scenario>  (847) 
1 2 4 0 6 0 1 0 1 1 1 2 2

>  <protected_ring_attachments>  (847) 
0,1,3,6|1,3,6;3,1,0,2|1,0,2;4,5,0,2|5,0,2;5,4,3,6|4,3,6;12,11,10,2|11,10,2;14,15,10,2|15,10,2

>  <current_task>  (847) 
no_task

>  <rotatable_bond_torsions>  (847) 
1,0,2,10;0,2,10,11

$$$$

     RDKit          3D

 17 19  0  0  0  0  0  0  0  0999 V2000
  -28.6860   -8.4010  -31.3930 C   0  0  0  0  0  0  0  0  0  0  0  0
  -28.5620   -7.2240  -32.0380 N   0  0  0  0  0  0  0  0  0  0  0  0
  -28.6180   -9.7310  -32.1330 N   0  0  0  0  0  0  0  0  0  0  0  0
  -28.5410   -6.2460  -31.1230 C   0  0  0  0  0  0  0  0  0  0  0  0
  -28.6570   -6.8600  -29.8940 C   0  0  0  0  0  0  0  0  0  0  0  0
  -28.7500   -8.2090  -30.0610 N   0  0  0  0  0  0  0  0  0  0  0  0
  -28.4320   -4.8950  -31.2410 N   0  0  0  0  0  0  0  0  0  0  0  0
  -28.4400   -4.1350  -30.1430 C   0  0  0  0  0  0  0  0  0  0  0  0
  -28.5540   -4.7000  -28.8920 C   0  0  0  0  0  0  0  0  0  0  0  0
  -28.6660   -6.0700  -28.7630 C   0  0  0  0  0  0  0  0  0  0  0  0
  -28.8850  -10.8770  -31.4800 C   0  0  0  0  0  0  0  0  0  0  0  0
  -27.9050  -11.8450  -31.4300 C   0  0  0  0  0  0  0  0  0  0  0  0
  -28.0700  -13.0530  -30.7940 C   0  0  0  0  0  0  0  0  0  0  0  0
  -29.3100  -13.2640  -30.1860 C   0  0  0  0  0  0  0  0  0  0  0  0
  -30.3060  -12.2850  -30.2360 C   0  0  0  0  0  0  0  0  0  0  0  0
  -30.0610  -11.1200  -30.8840 N   0  0  0  0  0  0  0  0  0  0  0  0
  -29.5770  -14.5620  -29.4660 C   0  0  0  0  0  0  0  0  0  0  0  0
  1  3  1  0
  1  2  2  0
  1  6  1  0
  2  4  1  0
  3 11  1  0
  4  7  2  0
  4  5  1  0
  5  6  1  0
  5 10  2  0
  7  8  1  0
  8  9  2  0
  9 10  1  0
 11 12  2  0
 11 16  1  0
 12 13  1  0
 13 14  2  0
 14 15  1  0
 14 17  1  0
 15 16  2  0
M  END
>  <name>  (848) 
Car Nac Nd0 Car Car Nd0 Nac Car Car Car Car Car Car Car Car Nac Cs3

>  <indices>  (848) 
[0, 1, 2]

>  <tasks>  (848) 
probe_placing close_aromatic_ring close_aromatic_ring close_aromatic_ring ring_built fix_Car close_aromatic_ring close_aromatic_ring close_aromatic_ring build_to_Nd0 close_aromatic_ring close_aromatic_ring close_aromatic_ring close_aromatic_ring close_aromatic_ring

>  <prot_clashes>  (848) 
1

>  <NBS phar>  (848) 
0.12

>  <NBS_non-phar>  (848) 
0.4766373914830825

>  <NBS>  (848) 
0.5966373914830825

>  <source_stage>  (848) 
scored

>  <source_iter>  (848) 
14

>  <source_parent_mol>  (848) 
0

>  <source_scenario>  (848) 
1 2 4 0 6 0 1 0 1 1 1 2 2 0

>  <source_rank_in_scored_call>  (848) 
43

>  <source_current_task>  (848) 
no_task

>  <scenario>  (848) 
1 2 4 0 6 0 1 0 1 1 1 2 2

>  <protected_ring_attachments>  (848) 
0,1,3,6|1,3,6;3,1,0,2|1,0,2;4,5,0,2|5,0,2;5,4,3,6|4,3,6;12,11,10,2|11,10,2;14,15,10,2|15,10,2

>  <current_task>  (848) 
no_task

>  <rotatable_bond_torsions>  (848) 
1,0,2,10;0,2,10,11

$$$$

     RDKit          3D

 17 19  0  0  0  0  0  0  0  0999 V2000
  -28.6570   -8.4720  -31.3980 C   0  0  0  0  0  0  0  0  0  0  0  0
  -28.5280   -7.2940  -32.0420 N   0  0  0  0  0  0  0  0  0  0  0  0
  -28.5760   -9.8010  -32.1370 N   0  0  0  0  0  0  0  0  0  0  0  0
  -28.5210   -6.3160  -31.1270 C   0  0  0  0  0  0  0  0  0  0  0  0
  -28.6500   -6.9300  -29.9000 C   0  0  0  0  0  0  0  0  0  0  0  0
  -28.7370   -8.2800  -30.0680 N   0  0  0  0  0  0  0  0  0  0  0  0
  -28.4140   -4.9650  -31.2450 N   0  0  0  0  0  0  0  0  0  0  0  0
  -28.4380   -4.2040  -30.1470 C   0  0  0  0  0  0  0  0  0  0  0  0
  -28.5650   -4.7690  -28.8970 C   0  0  0  0  0  0  0  0  0  0  0  0
  -28.6750   -6.1400  -28.7700 C   0  0  0  0  0  0  0  0  0  0  0  0
  -28.8470  -10.9480  -31.4870 C   0  0  0  0  0  0  0  0  0  0  0  0
  -27.8650  -11.9140  -31.4240 C   0  0  0  0  0  0  0  0  0  0  0  0
  -28.0350  -13.1220  -30.7900 C   0  0  0  0  0  0  0  0  0  0  0  0
  -29.2810  -13.3350  -30.1970 C   0  0  0  0  0  0  0  0  0  0  0  0
  -30.2780  -12.3600  -30.2590 C   0  0  0  0  0  0  0  0  0  0  0  0
  -30.0300  -11.1940  -30.9050 N   0  0  0  0  0  0  0  0  0  0  0  0
  -26.9380  -14.1570  -30.7380 C   0  0  0  0  0  0  0  0  0  0  0  0
  1  3  1  0
  1  2  2  0
  1  6  1  0
  2  4  1  0
  3 11  1  0
  4  7  2  0
  4  5  1  0
  5  6  1  0
  5 10  2  0
  7  8  1  0
  8  9  2  0
  9 10  1  0
 11 12  2  0
 11 16  1  0
 12 13  1  0
 13 17  1  0
 13 14  2  0
 14 15  1  0
 15 16  2  0
M  END
>  <name>  (849) 
Car Nac Nd0 Car Car Nd0 Nac Car Car Car Car Car Car Car Car Nac Cs3

>  <indices>  (849) 
[0, 1, 2]

>  <tasks>  (849) 
probe_placing close_aromatic_ring close_aromatic_ring close_aromatic_ring ring_built fix_Car close_aromatic_ring close_aromatic_ring close_aromatic_ring build_to_Nd0 close_aromatic_ring close_aromatic_ring close_aromatic_ring close_aromatic_ring close_aromatic_ring

>  <prot_clashes>  (849) 
1

>  <NBS phar>  (849) 
0.13999999999999999

>  <NBS_non-phar>  (849) 
0.426054786233341

>  <NBS>  (849) 
0.5660547862333409

>  <source_stage>  (849) 
scored

>  <source_iter>  (849) 
14

>  <source_parent_mol>  (849) 
0

>  <source_scenario>  (849) 
1 2 4 0 6 0 1 0 1 1 1 2 2 0

>  <source_rank_in_scored_call>  (849) 
64

>  <source_current_task>  (849) 
no_task

>  <scenario>  (849) 
1 2 4 0 6 0 1 0 1 1 1 2 2

>  <protected_ring_attachments>  (849) 
0,1,3,6|1,3,6;3,1,0,2|1,0,2;4,5,0,2|5,0,2;5,4,3,6|4,3,6;12,11,10,2|11,10,2;14,15,10,2|15,10,2

>  <current_task>  (849) 
no_task

>  <rotatable_bond_torsions>  (849) 
1,0,2,10;0,2,10,11

$$$$

     RDKit          3D

 17 19  0  0  0  0  0  0  0  0999 V2000
  -28.6280   -8.3930  -31.3960 C   0  0  0  0  0  0  0  0  0  0  0  0
  -28.4960   -7.2140  -32.0360 N   0  0  0  0  0  0  0  0  0  0  0  0
  -28.5360   -9.7210  -32.1370 N   0  0  0  0  0  0  0  0  0  0  0  0
  -28.5010   -6.2380  -31.1180 C   0  0  0  0  0  0  0  0  0  0  0  0
  -28.6420   -6.8550  -29.8940 C   0  0  0  0  0  0  0  0  0  0  0  0
  -28.7230   -8.2050  -30.0660 N   0  0  0  0  0  0  0  0  0  0  0  0
  -28.3970   -4.8860  -31.2310 N   0  0  0  0  0  0  0  0  0  0  0  0
  -28.4350   -4.1280  -30.1320 C   0  0  0  0  0  0  0  0  0  0  0  0
  -28.5730   -4.6970  -28.8850 C   0  0  0  0  0  0  0  0  0  0  0  0
  -28.6800   -6.0680  -28.7620 C   0  0  0  0  0  0  0  0  0  0  0  0
  -28.8100  -10.8700  -31.4930 C   0  0  0  0  0  0  0  0  0  0  0  0
  -27.8260  -11.8330  -31.4230 C   0  0  0  0  0  0  0  0  0  0  0  0
  -27.9990  -13.0430  -30.7940 C   0  0  0  0  0  0  0  0  0  0  0  0
  -29.2510  -13.2620  -30.2140 C   0  0  0  0  0  0  0  0  0  0  0  0
  -30.2510  -12.2890  -30.2850 C   0  0  0  0  0  0  0  0  0  0  0  0
  -29.9980  -11.1210  -30.9240 N   0  0  0  0  0  0  0  0  0  0  0  0
  -28.3230   -2.6290  -30.2580 C   0  0  0  0  0  0  0  0  0  0  0  0
  1  3  1  0
  1  2  2  0
  1  6  1  0
  2  4  1  0
  3 11  1  0
  4  7  2  0
  4  5  1  0
  5  6  1  0
  5 10  2  0
  7  8  1  0
  8 17  1  0
  8  9  2  0
  9 10  1  0
 11 12  2  0
 11 16  1  0
 12 13  1  0
 13 14  2  0
 14 15  1  0
 15 16  2  0
M  END
>  <name>  (850) 
Car Nac Nd0 Car Car Nd0 Nac Car Car Car Car Car Car Car Car Nac Cs3

>  <indices>  (850) 
[0, 1, 2]

>  <tasks>  (850) 
probe_placing close_aromatic_ring close_aromatic_ring close_aromatic_ring ring_built fix_Car close_aromatic_ring close_aromatic_ring close_aromatic_ring build_to_Nd0 close_aromatic_ring close_aromatic_ring close_aromatic_ring close_aromatic_ring close_aromatic_ring

>  <prot_clashes>  (850) 
1

>  <NBS phar>  (850) 
0.12

>  <NBS_non-phar>  (850) 
0.3886898265165441

>  <NBS>  (850) 
0.508689826516544

>  <source_stage>  (850) 
scored

>  <source_iter>  (850) 
14

>  <source_parent_mol>  (850) 
0

>  <source_scenario>  (850) 
1 2 4 0 6 0 1 0 1 1 1 2 2 0

>  <source_rank_in_scored_call>  (850) 
86

>  <source_current_task>  (850) 
no_task

>  <scenario>  (850) 
1 2 4 0 6 0 1 0 1 1 1 2 2

>  <protected_ring_attachments>  (850) 
0,1,3,6|1,3,6;3,1,0,2|1,0,2;4,5,0,2|5,0,2;5,4,3,6|4,3,6;12,11,10,2|11,10,2;14,15,10,2|15,10,2

>  <current_task>  (850) 
no_task

>  <rotatable_bond_torsions>  (850) 
1,0,2,10;0,2,10,11

$$$$

     RDKit          3D

 13 14  0  0  0  0  0  0  0  0999 V2000
  -28.4010   -7.6090  -31.2650 C   0  0  0  0  0  0  0  0  0  0  0  0
  -27.8510   -6.5640  -31.9140 N   0  0  0  0  0  0  0  0  0  0  0  0
  -28.2310   -9.0410  -31.7630 N   0  0  0  0  0  0  0  0  0  0  0  0
  -28.0640   -5.4610  -31.1860 C   0  0  0  0  0  0  0  0  0  0  0  0
  -28.7640   -5.8620  -30.0690 C   0  0  0  0  0  0  0  0  0  0  0  0
  -28.9760   -7.2080  -30.1180 N   0  0  0  0  0  0  0  0  0  0  0  0
  -27.7190   -4.1620  -31.3880 N   0  0  0  0  0  0  0  0  0  0  0  0
  -28.0650   -3.2380  -30.4840 C   0  0  0  0  0  0  0  0  0  0  0  0
  -28.7640   -3.5890  -29.3480 C   0  0  0  0  0  0  0  0  0  0  0  0
  -29.1180   -4.9070  -29.1370 C   0  0  0  0  0  0  0  0  0  0  0  0
  -28.6950  -10.0820  -31.3050 C   0  0  0  0  0  0  0  0  0  0  0  0
  -29.5560  -10.1810  -30.3580 O   0  0  0  0  0  0  0  0  0  0  0  0
  -28.3090  -11.4510  -31.8520 C   0  0  0  0  0  0  0  0  0  0  0  0
  1  2  2  0
  1  3  1  0
  1  6  1  0
  2  4  1  0
  3 11  1  0
  4  7  1  0
  4  5  2  0
  5  6  1  0
  5 10  1  0
  7  8  2  0
  8  9  1  0
  9 10  2  0
 11 13  1  0
 11 12  2  0
M  END
>  <name>  (851) 
Car Nac Nd0 Car Car Nd0 Nac Car Car Car Cs2 .=O Cs3

>  <indices>  (851) 
[0, 1, 2]

>  <tasks>  (851) 
probe_placing close_aromatic_ring close_aromatic_ring close_aromatic_ring ring_built fix_Car close_aromatic_ring close_aromatic_ring close_aromatic_ring build_to_Nd0 build_DB_to_Cs2

>  <prot_clashes>  (851) 
1

>  <NBS phar>  (851) 
0.34

>  <NBS_non-phar>  (851) 
0.617945671081543

>  <NBS>  (851) 
0.957945671081543

>  <source_stage>  (851) 
scored

>  <source_iter>  (851) 
10

>  <source_parent_mol>  (851) 
0

>  <source_scenario>  (851) 
1 2 4 0 6 0 1 0 3 0

>  <source_rank_in_scored_call>  (851) 
2

>  <source_current_task>  (851) 
build_SB_to_Cs2

>  <scenario>  (851) 
1 2 4 0 6 0 1 0 3

>  <protected_ring_attachments>  (851) 
0,1,3,6|1,3,6;3,1,0,2|1,0,2;4,5,0,2|5,0,2;5,4,3,6|4,3,6

>  <current_task>  (851) 
no_task

>  <rotatable_bond_torsions>  (851) 
1,0,2,10;0,2,10,11

$$$$

     RDKit          3D

 14 15  0  0  0  0  0  0  0  0999 V2000
  -28.4740   -7.6600  -31.3060 C   0  0  0  0  0  0  0  0  0  0  0  0
  -27.9110   -6.6160  -31.9450 N   0  0  0  0  0  0  0  0  0  0  0  0
  -28.3320   -9.0880  -31.8250 N   0  0  0  0  0  0  0  0  0  0  0  0
  -28.1000   -5.5190  -31.2000 C   0  0  0  0  0  0  0  0  0  0  0  0
  -28.8000   -5.9240  -30.0840 C   0  0  0  0  0  0  0  0  0  0  0  0
  -29.0350   -7.2650  -30.1500 N   0  0  0  0  0  0  0  0  0  0  0  0
  -27.7340   -4.2240  -31.3860 N   0  0  0  0  0  0  0  0  0  0  0  0
  -28.0590   -3.3070  -30.4670 C   0  0  0  0  0  0  0  0  0  0  0  0
  -28.7560   -3.6620  -29.3310 C   0  0  0  0  0  0  0  0  0  0  0  0
  -29.1310   -4.9760  -29.1360 C   0  0  0  0  0  0  0  0  0  0  0  0
  -28.8100  -10.1270  -31.3790 C   0  0  0  0  0  0  0  0  0  0  0  0
  -29.6670  -10.2250  -30.4270 O   0  0  0  0  0  0  0  0  0  0  0  0
  -28.4510  -11.4940  -31.9470 C   0  0  0  0  0  0  0  0  0  0  0  0
  -27.9220  -12.4850  -30.9430 C   0  0  0  0  0  0  0  0  0  0  0  0
  1  2  2  0
  1  3  1  0
  1  6  1  0
  2  4  1  0
  3 11  1  0
  4  7  1  0
  4  5  2  0
  5  6  1  0
  5 10  1  0
  7  8  2  0
  8  9  1  0
  9 10  2  0
 11 13  1  0
 11 12  2  0
 13 14  1  0
M  END
>  <name>  (852) 
Car Nac Nd0 Car Car Nd0 Nac Car Car Car Cs2 .=O Cs3 Cs3

>  <indices>  (852) 
[0, 1, 2]

>  <tasks>  (852) 
probe_placing close_aromatic_ring close_aromatic_ring close_aromatic_ring ring_built fix_Car close_aromatic_ring close_aromatic_ring close_aromatic_ring build_to_Nd0 build_DB_to_Cs2 build_SB_to_Cs2

>  <prot_clashes>  (852) 
1

>  <NBS phar>  (852) 
0.4600000000000001

>  <NBS_non-phar>  (852) 
0.6442319325038365

>  <NBS>  (852) 
1.1042319325038366

>  <source_stage>  (852) 
scored

>  <source_iter>  (852) 
11

>  <source_parent_mol>  (852) 
1

>  <source_scenario>  (852) 
1 2 4 0 6 0 1 0 3 0 1

>  <source_rank_in_scored_call>  (852) 
1

>  <source_current_task>  (852) 
no_task

>  <scenario>  (852) 
1 2 4 0 6 0 1 0 3 0

>  <protected_ring_attachments>  (852) 
0,1,3,6|1,3,6;3,1,0,2|1,0,2;4,5,0,2|5,0,2;5,4,3,6|4,3,6

>  <current_task>  (852) 
no_task

>  <rotatable_bond_torsions>  (852) 
1,0,2,10;0,2,10,12

$$$$

     RDKit          3D

 14 15  0  0  0  0  0  0  0  0999 V2000
  -28.1920   -7.6570  -31.1700 C   0  0  0  0  0  0  0  0  0  0  0  0
  -27.6750   -6.6640  -31.9200 N   0  0  0  0  0  0  0  0  0  0  0  0
  -27.9370   -9.1250  -31.4980 N   0  0  0  0  0  0  0  0  0  0  0  0
  -27.9650   -5.4990  -31.3270 C   0  0  0  0  0  0  0  0  0  0  0  0
  -28.6770   -5.8090  -30.1890 C   0  0  0  0  0  0  0  0  0  0  0  0
  -28.8210   -7.1610  -30.0900 N   0  0  0  0  0  0  0  0  0  0  0  0
  -27.6780   -4.2150  -31.6660 N   0  0  0  0  0  0  0  0  0  0  0  0
  -28.0970   -3.2150  -30.8820 C   0  0  0  0  0  0  0  0  0  0  0  0
  -28.8110   -3.4730  -29.7310 C   0  0  0  0  0  0  0  0  0  0  0  0
  -29.1060   -4.7760  -29.3800 C   0  0  0  0  0  0  0  0  0  0  0  0
  -28.3620  -10.1310  -30.9370 C   0  0  0  0  0  0  0  0  0  0  0  0
  -29.2460  -10.1690  -30.0060 O   0  0  0  0  0  0  0  0  0  0  0  0
  -27.8930  -11.5310  -31.3160 C   0  0  0  0  0  0  0  0  0  0  0  0
  -28.8130  -12.1220  -32.3910 C   0  0  0  0  0  0  0  0  0  0  0  0
  1  2  2  0
  1  3  1  0
  1  6  1  0
  2  4  1  0
  3 11  1  0
  4  7  1  0
  4  5  2  0
  5  6  1  0
  5 10  1  0
  7  8  2  0
  8  9  1  0
  9 10  2  0
 11 13  1  0
 11 12  2  0
 13 14  1  0
M  END
>  <name>  (853) 
Car Nac Nd0 Car Car Nd0 Nac Car Car Car Cs2 .=O Cs3 Cs3

>  <indices>  (853) 
[0, 1, 2]

>  <tasks>  (853) 
probe_placing close_aromatic_ring close_aromatic_ring close_aromatic_ring ring_built fix_Car close_aromatic_ring close_aromatic_ring close_aromatic_ring build_to_Nd0 build_DB_to_Cs2 build_SB_to_Cs2

>  <prot_clashes>  (853) 
2

>  <NBS phar>  (853) 
0.38000000000000006

>  <NBS_non-phar>  (853) 
0.6067891120910645

>  <NBS>  (853) 
0.9867891120910646

>  <source_stage>  (853) 
scored

>  <source_iter>  (853) 
11

>  <source_parent_mol>  (853) 
1

>  <source_scenario>  (853) 
1 2 4 0 6 0 1 0 3 0 1

>  <source_rank_in_scored_call>  (853) 
25

>  <source_current_task>  (853) 
no_task

>  <scenario>  (853) 
1 2 4 0 6 0 1 0 3 0

>  <protected_ring_attachments>  (853) 
0,1,3,6|1,3,6;3,1,0,2|1,0,2;4,5,0,2|5,0,2;5,4,3,6|4,3,6

>  <current_task>  (853) 
no_task

>  <rotatable_bond_torsions>  (853) 
1,0,2,10;0,2,10,12

$$$$

     RDKit          3D

 14 15  0  0  0  0  0  0  0  0999 V2000
  -28.2930   -7.5740  -31.5070 C   0  0  0  0  0  0  0  0  0  0  0  0
  -27.7070   -6.6290  -32.2690 N   0  0  0  0  0  0  0  0  0  0  0  0
  -28.2120   -9.0550  -31.8640 N   0  0  0  0  0  0  0  0  0  0  0  0
  -27.8410   -5.4500  -31.6490 C   0  0  0  0  0  0  0  0  0  0  0  0
  -28.5290   -5.7010  -30.4820 C   0  0  0  0  0  0  0  0  0  0  0  0
  -28.8130   -7.0320  -30.3920 N   0  0  0  0  0  0  0  0  0  0  0  0
  -27.4350   -4.1980  -31.9870 N   0  0  0  0  0  0  0  0  0  0  0  0
  -27.7060   -3.1730  -31.1720 C   0  0  0  0  0  0  0  0  0  0  0  0
  -28.3900   -3.3720  -29.9900 C   0  0  0  0  0  0  0  0  0  0  0  0
  -28.8060   -4.6410  -29.6410 C   0  0  0  0  0  0  0  0  0  0  0  0
  -28.7170  -10.0190  -31.2940 C   0  0  0  0  0  0  0  0  0  0  0  0
  -29.5540   -9.9770  -30.3220 O   0  0  0  0  0  0  0  0  0  0  0  0
  -28.4190  -11.4540  -31.7110 C   0  0  0  0  0  0  0  0  0  0  0  0
  -29.5570   -4.8690  -28.3530 C   0  0  0  0  0  0  0  0  0  0  0  0
  1  2  2  0
  1  3  1  0
  1  6  1  0
  2  4  1  0
  3 11  1  0
  4  7  1  0
  4  5  2  0
  5  6  1  0
  5 10  1  0
  7  8  2  0
  8  9  1  0
  9 10  2  0
 10 14  1  0
 11 13  1  0
 11 12  2  0
M  END
>  <name>  (854) 
Car Nac Nd0 Car Car Nd0 Nac Car Car Car Cs2 .=O Cs3 Cs3

>  <indices>  (854) 
[0, 1, 2]

>  <tasks>  (854) 
probe_placing close_aromatic_ring close_aromatic_ring close_aromatic_ring ring_built fix_Car close_aromatic_ring close_aromatic_ring close_aromatic_ring build_to_Nd0 build_DB_to_Cs2 build_SB_to_Cs2

>  <prot_clashes>  (854) 
5

>  <NBS phar>  (854) 
0.36000000000000004

>  <NBS_non-phar>  (854) 
0.6230275290352958

>  <NBS>  (854) 
0.9830275290352959

>  <source_stage>  (854) 
scored

>  <source_iter>  (854) 
11

>  <source_parent_mol>  (854) 
1

>  <source_scenario>  (854) 
1 2 4 0 6 0 1 0 3 0 1

>  <source_rank_in_scored_call>  (854) 
28

>  <source_current_task>  (854) 
no_task

>  <scenario>  (854) 
1 2 4 0 6 0 1 0 3 0

>  <protected_ring_attachments>  (854) 
0,1,3,6|1,3,6;3,1,0,2|1,0,2;4,5,0,2|5,0,2;5,4,3,6|4,3,6

>  <current_task>  (854) 
no_task

>  <rotatable_bond_torsions>  (854) 
1,0,2,10;0,2,10,12

$$$$

     RDKit          3D

 14 15  0  0  0  0  0  0  0  0999 V2000
  -28.3660   -7.6160  -31.2550 C   0  0  0  0  0  0  0  0  0  0  0  0
  -27.8560   -6.5560  -31.9120 N   0  0  0  0  0  0  0  0  0  0  0  0
  -28.1630   -9.0420  -31.7570 N   0  0  0  0  0  0  0  0  0  0  0  0
  -28.0890   -5.4590  -31.1800 C   0  0  0  0  0  0  0  0  0  0  0  0
  -28.7600   -5.8800  -30.0520 C   0  0  0  0  0  0  0  0  0  0  0  0
  -28.9340   -7.2320  -30.0990 N   0  0  0  0  0  0  0  0  0  0  0  0
  -27.7840   -4.1510  -31.3860 N   0  0  0  0  0  0  0  0  0  0  0  0
  -28.1420   -3.2370  -30.4760 C   0  0  0  0  0  0  0  0  0  0  0  0
  -28.8130   -3.6080  -29.3300 C   0  0  0  0  0  0  0  0  0  0  0  0
  -29.1260   -4.9360  -29.1140 C   0  0  0  0  0  0  0  0  0  0  0  0
  -28.5910  -10.0960  -31.2920 C   0  0  0  0  0  0  0  0  0  0  0  0
  -29.4340  -10.2200  -30.3320 O   0  0  0  0  0  0  0  0  0  0  0  0
  -28.1740  -11.4540  -31.8460 C   0  0  0  0  0  0  0  0  0  0  0  0
  -28.1510  -12.6230  -30.8940 C   0  0  0  0  0  0  0  0  0  0  0  0
  1  2  2  0
  1  3  1  0
  1  6  1  0
  2  4  1  0
  3 11  1  0
  4  7  1  0
  4  5  2  0
  5  6  1  0
  5 10  1  0
  7  8  2  0
  8  9  1  0
  9 10  2  0
 11 13  1  0
 11 12  2  0
 13 14  1  0
M  END
>  <name>  (855) 
Car Nac Nd0 Car Car Nd0 Nac Car Car Car Cs2 .=O Cs3 Cs3

>  <indices>  (855) 
[0, 1, 2]

>  <tasks>  (855) 
probe_placing close_aromatic_ring close_aromatic_ring close_aromatic_ring ring_built fix_Car close_aromatic_ring close_aromatic_ring close_aromatic_ring build_to_Nd0 build_DB_to_Cs2 build_SB_to_Cs2

>  <prot_clashes>  (855) 
1

>  <NBS phar>  (855) 
0.36000000000000004

>  <NBS_non-phar>  (855) 
0.6104085104806083

>  <NBS>  (855) 
0.9704085104806084

>  <source_stage>  (855) 
scored

>  <source_iter>  (855) 
11

>  <source_parent_mol>  (855) 
1

>  <source_scenario>  (855) 
1 2 4 0 6 0 1 0 3 0 1

>  <source_rank_in_scored_call>  (855) 
37

>  <source_current_task>  (855) 
no_task

>  <scenario>  (855) 
1 2 4 0 6 0 1 0 3 0

>  <protected_ring_attachments>  (855) 
0,1,3,6|1,3,6;3,1,0,2|1,0,2;4,5,0,2|5,0,2;5,4,3,6|4,3,6

>  <current_task>  (855) 
no_task

>  <rotatable_bond_torsions>  (855) 
1,0,2,10;0,2,10,12

$$$$

     RDKit          3D

 14 15  0  0  0  0  0  0  0  0999 V2000
  -28.4000   -7.6100  -31.2660 C   0  0  0  0  0  0  0  0  0  0  0  0
  -27.8510   -6.5650  -31.9150 N   0  0  0  0  0  0  0  0  0  0  0  0
  -28.2290   -9.0420  -31.7640 N   0  0  0  0  0  0  0  0  0  0  0  0
  -28.0640   -5.4620  -31.1860 C   0  0  0  0  0  0  0  0  0  0  0  0
  -28.7630   -5.8640  -30.0690 C   0  0  0  0  0  0  0  0  0  0  0  0
  -28.9750   -7.2100  -30.1180 N   0  0  0  0  0  0  0  0  0  0  0  0
  -27.7200   -4.1630  -31.3880 N   0  0  0  0  0  0  0  0  0  0  0  0
  -28.0660   -3.2390  -30.4830 C   0  0  0  0  0  0  0  0  0  0  0  0
  -28.7650   -3.5910  -29.3470 C   0  0  0  0  0  0  0  0  0  0  0  0
  -29.1180   -4.9090  -29.1360 C   0  0  0  0  0  0  0  0  0  0  0  0
  -28.6920  -10.0830  -31.3060 C   0  0  0  0  0  0  0  0  0  0  0  0
  -29.5530  -10.1830  -30.3590 O   0  0  0  0  0  0  0  0  0  0  0  0
  -28.3060  -11.4520  -31.8540 C   0  0  0  0  0  0  0  0  0  0  0  0
  -27.6890   -1.7960  -30.7090 C   0  0  0  0  0  0  0  0  0  0  0  0
  1  2  2  0
  1  3  1  0
  1  6  1  0
  2  4  1  0
  3 11  1  0
  4  7  1  0
  4  5  2  0
  5  6  1  0
  5 10  1  0
  7  8  2  0
  8 14  1  0
  8  9  1  0
  9 10  2  0
 11 13  1  0
 11 12  2  0
M  END
>  <name>  (856) 
Car Nac Nd0 Car Car Nd0 Nac Car Car Car Cs2 .=O Cs3 Cs3

>  <indices>  (856) 
[0, 1, 2]

>  <tasks>  (856) 
probe_placing close_aromatic_ring close_aromatic_ring close_aromatic_ring ring_built fix_Car close_aromatic_ring close_aromatic_ring close_aromatic_ring build_to_Nd0 build_DB_to_Cs2 build_SB_to_Cs2

>  <prot_clashes>  (856) 
2

>  <NBS phar>  (856) 
0.34

>  <NBS_non-phar>  (856) 
0.6226130894252232

>  <NBS>  (856) 
0.9626130894252232

>  <source_stage>  (856) 
scored

>  <source_iter>  (856) 
11

>  <source_parent_mol>  (856) 
1

>  <source_scenario>  (856) 
1 2 4 0 6 0 1 0 3 0 1

>  <source_rank_in_scored_call>  (856) 
43

>  <source_current_task>  (856) 
no_task

>  <scenario>  (856) 
1 2 4 0 6 0 1 0 3 0

>  <protected_ring_attachments>  (856) 
0,1,3,6|1,3,6;3,1,0,2|1,0,2;4,5,0,2|5,0,2;5,4,3,6|4,3,6

>  <current_task>  (856) 
no_task

>  <rotatable_bond_torsions>  (856) 
1,0,2,10;0,2,10,12

$$$$

     RDKit          3D

 14 15  0  0  0  0  0  0  0  0999 V2000
  -28.3890   -7.6550  -31.2490 C   0  0  0  0  0  0  0  0  0  0  0  0
  -27.9650   -6.5830  -31.9460 N   0  0  0  0  0  0  0  0  0  0  0  0
  -28.2460   -9.0730  -31.7940 N   0  0  0  0  0  0  0  0  0  0  0  0
  -28.1100   -5.4990  -31.1740 C   0  0  0  0  0  0  0  0  0  0  0  0
  -28.6370   -5.9400  -29.9800 C   0  0  0  0  0  0  0  0  0  0  0  0
  -28.8130   -7.2910  -30.0260 N   0  0  0  0  0  0  0  0  0  0  0  0
  -27.8350   -4.1860  -31.3960 N   0  0  0  0  0  0  0  0  0  0  0  0
  -28.0820   -3.2880  -30.4350 C   0  0  0  0  0  0  0  0  0  0  0  0
  -28.6070   -3.6790  -29.2210 C   0  0  0  0  0  0  0  0  0  0  0  0
  -28.8880   -5.0110  -28.9900 C   0  0  0  0  0  0  0  0  0  0  0  0
  -28.6100  -10.1360  -31.2970 C   0  0  0  0  0  0  0  0  0  0  0  0
  -29.3300  -10.2770  -30.2430 O   0  0  0  0  0  0  0  0  0  0  0  0
  -28.2620  -11.4830  -31.9190 C   0  0  0  0  0  0  0  0  0  0  0  0
  -28.8730   -2.6530  -28.1480 C   0  0  0  0  0  0  0  0  0  0  0  0
  1  2  2  0
  1  3  1  0
  1  6  1  0
  2  4  1  0
  3 11  1  0
  4  7  1  0
  4  5  2  0
  5  6  1  0
  5 10  1  0
  7  8  2  0
  8  9  1  0
  9 10  2  0
  9 14  1  0
 11 13  1  0
 11 12  2  0
M  END
>  <name>  (857) 
Car Nac Nd0 Car Car Nd0 Nac Car Car Car Cs2 .=O Cs3 Cs3

>  <indices>  (857) 
[0, 1, 2]

>  <tasks>  (857) 
probe_placing close_aromatic_ring close_aromatic_ring close_aromatic_ring ring_built fix_Car close_aromatic_ring close_aromatic_ring close_aromatic_ring build_to_Nd0 build_DB_to_Cs2 build_SB_to_Cs2

>  <prot_clashes>  (857) 
1

>  <NBS phar>  (857) 
0.34000000000000014

>  <NBS_non-phar>  (857) 
0.6154529026576451

>  <NBS>  (857) 
0.9554529026576453

>  <source_stage>  (857) 
scored

>  <source_iter>  (857) 
11

>  <source_parent_mol>  (857) 
1

>  <source_scenario>  (857) 
1 2 4 0 6 0 1 0 3 0 1

>  <source_rank_in_scored_call>  (857) 
47

>  <source_current_task>  (857) 
no_task

>  <scenario>  (857) 
1 2 4 0 6 0 1 0 3 0

>  <protected_ring_attachments>  (857) 
0,1,3,6|1,3,6;3,1,0,2|1,0,2;4,5,0,2|5,0,2;5,4,3,6|4,3,6

>  <current_task>  (857) 
no_task

>  <rotatable_bond_torsions>  (857) 
1,0,2,10;0,2,10,12

$$$$

     RDKit          3D

 14 15  0  0  0  0  0  0  0  0999 V2000
  -28.4000   -7.6100  -31.2650 C   0  0  0  0  0  0  0  0  0  0  0  0
  -27.8510   -6.5650  -31.9140 N   0  0  0  0  0  0  0  0  0  0  0  0
  -28.2300   -9.0420  -31.7630 N   0  0  0  0  0  0  0  0  0  0  0  0
  -28.0630   -5.4620  -31.1860 C   0  0  0  0  0  0  0  0  0  0  0  0
  -28.7630   -5.8630  -30.0690 C   0  0  0  0  0  0  0  0  0  0  0  0
  -28.9750   -7.2090  -30.1180 N   0  0  0  0  0  0  0  0  0  0  0  0
  -27.7190   -4.1630  -31.3880 N   0  0  0  0  0  0  0  0  0  0  0  0
  -28.0640   -3.2390  -30.4840 C   0  0  0  0  0  0  0  0  0  0  0  0
  -28.7630   -3.5900  -29.3480 C   0  0  0  0  0  0  0  0  0  0  0  0
  -29.1160   -4.9080  -29.1370 C   0  0  0  0  0  0  0  0  0  0  0  0
  -28.6940  -10.0830  -31.3050 C   0  0  0  0  0  0  0  0  0  0  0  0
  -29.5550  -10.1820  -30.3580 O   0  0  0  0  0  0  0  0  0  0  0  0
  -28.3080  -11.4520  -31.8520 C   0  0  0  0  0  0  0  0  0  0  0  0
  -28.1680  -12.5190  -30.7400 C   0  0  0  0  0  0  0  0  0  0  0  0
  1  2  2  0
  1  3  1  0
  1  6  1  0
  2  4  1  0
  3 11  1  0
  4  7  1  0
  4  5  2  0
  5  6  1  0
  5 10  1  0
  7  8  2  0
  8  9  1  0
  9 10  2  0
 11 13  1  0
 11 12  2  0
 13 14  1  0
M  END
>  <name>  (858) 
Car Nac Nd0 Car Car Nd0 Nac Car Car Car Cs2 .=O Cs3 Cs3

>  <indices>  (858) 
[0, 1, 2]

>  <tasks>  (858) 
probe_placing close_aromatic_ring close_aromatic_ring close_aromatic_ring ring_built fix_Car close_aromatic_ring close_aromatic_ring close_aromatic_ring build_to_Nd0 build_DB_to_Cs2 build_SB_to_Cs2

>  <prot_clashes>  (858) 
1

>  <NBS phar>  (858) 
0.34

>  <NBS_non-phar>  (858) 
0.5971628597804478

>  <NBS>  (858) 
0.9371628597804478

>  <source_stage>  (858) 
scored

>  <source_iter>  (858) 
11

>  <source_parent_mol>  (858) 
1

>  <source_scenario>  (858) 
1 2 4 0 6 0 1 0 3 0 1

>  <source_rank_in_scored_call>  (858) 
56

>  <source_current_task>  (858) 
no_task

>  <scenario>  (858) 
1 2 4 0 6 0 1 0 3 0

>  <protected_ring_attachments>  (858) 
0,1,3,6|1,3,6;3,1,0,2|1,0,2;4,5,0,2|5,0,2;5,4,3,6|4,3,6

>  <current_task>  (858) 
no_task

>  <rotatable_bond_torsions>  (858) 
1,0,2,10;0,2,10,12

$$$$

     RDKit          3D

 14 15  0  0  0  0  0  0  0  0999 V2000
  -28.2990   -7.6140  -31.2540 C   0  0  0  0  0  0  0  0  0  0  0  0
  -27.8400   -6.5520  -31.9470 N   0  0  0  0  0  0  0  0  0  0  0  0
  -28.0930   -9.0420  -31.7480 N   0  0  0  0  0  0  0  0  0  0  0  0
  -28.0590   -5.4510  -31.2170 C   0  0  0  0  0  0  0  0  0  0  0  0
  -28.6690   -5.8700  -30.0550 C   0  0  0  0  0  0  0  0  0  0  0  0
  -28.8200   -7.2250  -30.0780 N   0  0  0  0  0  0  0  0  0  0  0  0
  -27.7890   -4.1400  -31.4530 N   0  0  0  0  0  0  0  0  0  0  0  0
  -28.1210   -3.2220  -30.5380 C   0  0  0  0  0  0  0  0  0  0  0  0
  -28.7310   -3.5910  -29.3570 C   0  0  0  0  0  0  0  0  0  0  0  0
  -29.0090   -4.9210  -29.1120 C   0  0  0  0  0  0  0  0  0  0  0  0
  -28.4780  -10.0980  -31.2520 C   0  0  0  0  0  0  0  0  0  0  0  0
  -29.2730  -10.2250  -30.2520 O   0  0  0  0  0  0  0  0  0  0  0  0
  -28.0630  -11.4540  -31.8090 C   0  0  0  0  0  0  0  0  0  0  0  0
  -29.1120  -12.4590  -31.6730 C   0  0  0  0  0  0  0  0  0  0  0  0
  1  2  2  0
  1  3  1  0
  1  6  1  0
  2  4  1  0
  3 11  1  0
  4  7  1  0
  4  5  2  0
  5  6  1  0
  5 10  1  0
  7  8  2  0
  8  9  1  0
  9 10  2  0
 11 13  1  0
 11 12  2  0
 13 14  1  0
M  END
>  <name>  (859) 
Car Nac Nd0 Car Car Nd0 Nac Car Car Car Cs2 .=O Cs3 Cs3

>  <indices>  (859) 
[0, 1, 2]

>  <tasks>  (859) 
probe_placing close_aromatic_ring close_aromatic_ring close_aromatic_ring ring_built fix_Car close_aromatic_ring close_aromatic_ring close_aromatic_ring build_to_Nd0 build_DB_to_Cs2 build_SB_to_Cs2

>  <prot_clashes>  (859) 
2

>  <NBS phar>  (859) 
0.2800000000000001

>  <NBS_non-phar>  (859) 
0.6364930016653878

>  <NBS>  (859) 
0.9164930016653878

>  <source_stage>  (859) 
scored

>  <source_iter>  (859) 
11

>  <source_parent_mol>  (859) 
1

>  <source_scenario>  (859) 
1 2 4 0 6 0 1 0 3 0 1

>  <source_rank_in_scored_call>  (859) 
64

>  <source_current_task>  (859) 
no_task

>  <scenario>  (859) 
1 2 4 0 6 0 1 0 3 0

>  <protected_ring_attachments>  (859) 
0,1,3,6|1,3,6;3,1,0,2|1,0,2;4,5,0,2|5,0,2;5,4,3,6|4,3,6

>  <current_task>  (859) 
no_task

>  <rotatable_bond_torsions>  (859) 
1,0,2,10;0,2,10,12

$$$$

     RDKit          3D

 14 15  0  0  0  0  0  0  0  0999 V2000
  -28.6500   -7.7110  -31.3820 C   0  0  0  0  0  0  0  0  0  0  0  0
  -28.1640   -6.7500  -32.1920 N   0  0  0  0  0  0  0  0  0  0  0  0
  -28.7390   -9.1670  -31.8300 N   0  0  0  0  0  0  0  0  0  0  0  0
  -28.0950   -5.6100  -31.4930 C   0  0  0  0  0  0  0  0  0  0  0  0
  -28.5570   -5.9020  -30.2280 C   0  0  0  0  0  0  0  0  0  0  0  0
  -28.9050   -7.2180  -30.1580 N   0  0  0  0  0  0  0  0  0  0  0  0
  -27.6810   -4.3620  -31.8350 N   0  0  0  0  0  0  0  0  0  0  0  0
  -27.7190   -3.3810  -30.9260 C   0  0  0  0  0  0  0  0  0  0  0  0
  -28.1700   -3.6220  -29.6450 C   0  0  0  0  0  0  0  0  0  0  0  0
  -28.5930   -4.8880  -29.2920 C   0  0  0  0  0  0  0  0  0  0  0  0
  -29.1850  -10.1390  -31.2260 C   0  0  0  0  0  0  0  0  0  0  0  0
  -29.8120  -10.1180  -30.1050 O   0  0  0  0  0  0  0  0  0  0  0  0
  -29.0700  -11.5560  -31.7730 C   0  0  0  0  0  0  0  0  0  0  0  0
  -27.6870  -12.2530  -31.5220 C   0  0  0  0  0  0  0  0  0  0  0  0
  1  2  2  0
  1  3  1  0
  1  6  1  0
  2  4  1  0
  3 11  1  0
  4  7  1  0
  4  5  2  0
  5  6  1  0
  5 10  1  0
  7  8  2  0
  8  9  1  0
  9 10  2  0
 11 13  1  0
 11 12  2  0
 13 14  1  0
M  END
>  <name>  (860) 
Car Nac Nd0 Car Car Nd0 Nac Car Car Car Cs2 .=O Cs3 Cs3

>  <indices>  (860) 
[0, 1, 2]

>  <tasks>  (860) 
probe_placing close_aromatic_ring close_aromatic_ring close_aromatic_ring ring_built fix_Car close_aromatic_ring close_aromatic_ring close_aromatic_ring build_to_Nd0 build_DB_to_Cs2 build_SB_to_Cs2

>  <prot_clashes>  (860) 
0

>  <NBS phar>  (860) 
0.21999999999999997

>  <NBS_non-phar>  (860) 
0.6876299040658134

>  <NBS>  (860) 
0.9076299040658133

>  <source_stage>  (860) 
scored

>  <source_iter>  (860) 
11

>  <source_parent_mol>  (860) 
1

>  <source_scenario>  (860) 
1 2 4 0 6 0 1 0 3 0 1

>  <source_rank_in_scored_call>  (860) 
67

>  <source_current_task>  (860) 
no_task

>  <scenario>  (860) 
1 2 4 0 6 0 1 0 3 0

>  <protected_ring_attachments>  (860) 
0,1,3,6|1,3,6;3,1,0,2|1,0,2;4,5,0,2|5,0,2;5,4,3,6|4,3,6

>  <current_task>  (860) 
no_task

>  <rotatable_bond_torsions>  (860) 
1,0,2,10;0,2,10,12

$$$$

     RDKit          3D

 14 15  0  0  0  0  0  0  0  0999 V2000
  -28.3000   -7.6140  -31.2410 C   0  0  0  0  0  0  0  0  0  0  0  0
  -27.8290   -6.5470  -31.9160 N   0  0  0  0  0  0  0  0  0  0  0  0
  -28.0830   -9.0390  -31.7410 N   0  0  0  0  0  0  0  0  0  0  0  0
  -28.0630   -5.4520  -31.1830 C   0  0  0  0  0  0  0  0  0  0  0  0
  -28.6950   -5.8800  -30.0360 C   0  0  0  0  0  0  0  0  0  0  0  0
  -28.8440   -7.2350  -30.0710 N   0  0  0  0  0  0  0  0  0  0  0  0
  -27.7900   -4.1390  -31.4040 N   0  0  0  0  0  0  0  0  0  0  0  0
  -28.1410   -3.2280  -30.4890 C   0  0  0  0  0  0  0  0  0  0  0  0
  -28.7730   -3.6060  -29.3230 C   0  0  0  0  0  0  0  0  0  0  0  0
  -29.0540   -4.9380  -29.0920 C   0  0  0  0  0  0  0  0  0  0  0  0
  -28.4770  -10.0980  -31.2600 C   0  0  0  0  0  0  0  0  0  0  0  0
  -29.2910  -10.2330  -30.2770 O   0  0  0  0  0  0  0  0  0  0  0  0
  -28.0500  -11.4500  -31.8190 C   0  0  0  0  0  0  0  0  0  0  0  0
  -29.1030  -12.4870  -31.7140 C   0  0  0  0  0  0  0  0  0  0  0  0
  1  2  2  0
  1  3  1  0
  1  6  1  0
  2  4  1  0
  3 11  1  0
  4  7  1  0
  4  5  2  0
  5  6  1  0
  5 10  1  0
  7  8  2  0
  8  9  1  0
  9 10  2  0
 11 13  1  0
 11 12  2  0
 13 14  1  0
M  END
>  <name>  (861) 
Car Nac Nd0 Car Car Nd0 Nac Car Car Car Cs2 .=O Cs3 Cs3

>  <indices>  (861) 
[0, 1, 2]

>  <tasks>  (861) 
probe_placing close_aromatic_ring close_aromatic_ring close_aromatic_ring ring_built fix_Car close_aromatic_ring close_aromatic_ring close_aromatic_ring build_to_Nd0 build_DB_to_Cs2 build_SB_to_Cs2

>  <prot_clashes>  (861) 
2

>  <NBS phar>  (861) 
0.26000000000000006

>  <NBS_non-phar>  (861) 
0.6413046291896275

>  <NBS>  (861) 
0.9013046291896276

>  <source_stage>  (861) 
scored

>  <source_iter>  (861) 
11

>  <source_parent_mol>  (861) 
1

>  <source_scenario>  (861) 
1 2 4 0 6 0 1 0 3 0 1

>  <source_rank_in_scored_call>  (861) 
70

>  <source_current_task>  (861) 
no_task

>  <scenario>  (861) 
1 2 4 0 6 0 1 0 3 0

>  <protected_ring_attachments>  (861) 
0,1,3,6|1,3,6;3,1,0,2|1,0,2;4,5,0,2|5,0,2;5,4,3,6|4,3,6

>  <current_task>  (861) 
no_task

>  <rotatable_bond_torsions>  (861) 
1,0,2,10;0,2,10,12

$$$$

     RDKit          3D

 14 15  0  0  0  0  0  0  0  0999 V2000
  -28.6940   -7.6360  -31.3730 C   0  0  0  0  0  0  0  0  0  0  0  0
  -28.1750   -6.7030  -32.1950 N   0  0  0  0  0  0  0  0  0  0  0  0
  -28.7920   -9.1020  -31.7860 N   0  0  0  0  0  0  0  0  0  0  0  0
  -28.1080   -5.5460  -31.5240 C   0  0  0  0  0  0  0  0  0  0  0  0
  -28.6030   -5.8000  -30.2630 C   0  0  0  0  0  0  0  0  0  0  0  0
  -28.9710   -7.1090  -30.1680 N   0  0  0  0  0  0  0  0  0  0  0  0
  -27.6680   -4.3130  -31.8870 N   0  0  0  0  0  0  0  0  0  0  0  0
  -27.7140   -3.3080  -31.0040 C   0  0  0  0  0  0  0  0  0  0  0  0
  -28.1980   -3.5110  -29.7290 C   0  0  0  0  0  0  0  0  0  0  0  0
  -28.6470   -4.7620  -29.3540 C   0  0  0  0  0  0  0  0  0  0  0  0
  -29.2660  -10.0520  -31.1680 C   0  0  0  0  0  0  0  0  0  0  0  0
  -29.9190   -9.9940  -30.0650 O   0  0  0  0  0  0  0  0  0  0  0  0
  -29.1580  -11.4840  -31.6770 C   0  0  0  0  0  0  0  0  0  0  0  0
  -27.6670  -11.9600  -31.7680 C   0  0  0  0  0  0  0  0  0  0  0  0
  1  2  2  0
  1  3  1  0
  1  6  1  0
  2  4  1  0
  3 11  1  0
  4  7  1  0
  4  5  2  0
  5  6  1  0
  5 10  1  0
  7  8  2  0
  8  9  1  0
  9 10  2  0
 11 13  1  0
 11 12  2  0
 13 14  1  0
M  END
>  <name>  (862) 
Car Nac Nd0 Car Car Nd0 Nac Car Car Car Cs2 .=O Cs3 Cs3

>  <indices>  (862) 
[0, 1, 2]

>  <tasks>  (862) 
probe_placing close_aromatic_ring close_aromatic_ring close_aromatic_ring ring_built fix_Car close_aromatic_ring close_aromatic_ring close_aromatic_ring build_to_Nd0 build_DB_to_Cs2 build_SB_to_Cs2

>  <prot_clashes>  (862) 
2

>  <NBS phar>  (862) 
0.19999999999999998

>  <NBS_non-phar>  (862) 
0.6813105855669294

>  <NBS>  (862) 
0.8813105855669293

>  <source_stage>  (862) 
scored

>  <source_iter>  (862) 
11

>  <source_parent_mol>  (862) 
1

>  <source_scenario>  (862) 
1 2 4 0 6 0 1 0 3 0 1

>  <source_rank_in_scored_call>  (862) 
78

>  <source_current_task>  (862) 
no_task

>  <scenario>  (862) 
1 2 4 0 6 0 1 0 3 0

>  <protected_ring_attachments>  (862) 
0,1,3,6|1,3,6;3,1,0,2|1,0,2;4,5,0,2|5,0,2;5,4,3,6|4,3,6

>  <current_task>  (862) 
no_task

>  <rotatable_bond_torsions>  (862) 
1,0,2,10;0,2,10,12

$$$$

     RDKit          3D

 14 15  0  0  0  0  0  0  0  0999 V2000
  -28.2570   -7.6420  -31.2120 C   0  0  0  0  0  0  0  0  0  0  0  0
  -27.8040   -6.5830  -31.9110 N   0  0  0  0  0  0  0  0  0  0  0  0
  -28.0100   -9.0740  -31.6760 N   0  0  0  0  0  0  0  0  0  0  0  0
  -28.0630   -5.4750  -31.2060 C   0  0  0  0  0  0  0  0  0  0  0  0
  -28.6920   -5.8870  -30.0520 C   0  0  0  0  0  0  0  0  0  0  0  0
  -28.8140   -7.2450  -30.0550 N   0  0  0  0  0  0  0  0  0  0  0  0
  -27.8140   -4.1620  -31.4580 N   0  0  0  0  0  0  0  0  0  0  0  0
  -28.1870   -3.2360  -30.5670 C   0  0  0  0  0  0  0  0  0  0  0  0
  -28.8170   -3.5980  -29.3950 C   0  0  0  0  0  0  0  0  0  0  0  0
  -29.0740   -4.9290  -29.1330 C   0  0  0  0  0  0  0  0  0  0  0  0
  -28.3860  -10.1290  -31.1720 C   0  0  0  0  0  0  0  0  0  0  0  0
  -29.2020  -10.2560  -30.1890 O   0  0  0  0  0  0  0  0  0  0  0  0
  -27.9290  -11.4850  -31.6950 C   0  0  0  0  0  0  0  0  0  0  0  0
  -29.0340  -12.3320  -32.2680 C   0  0  0  0  0  0  0  0  0  0  0  0
  1  2  2  0
  1  3  1  0
  1  6  1  0
  2  4  1  0
  3 11  1  0
  4  7  1  0
  4  5  2  0
  5  6  1  0
  5 10  1  0
  7  8  2  0
  8  9  1  0
  9 10  2  0
 11 13  1  0
 11 12  2  0
 13 14  1  0
M  END
>  <name>  (863) 
Car Nac Nd0 Car Car Nd0 Nac Car Car Car Cs2 .=O Cs3 Cs3

>  <indices>  (863) 
[0, 1, 2]

>  <tasks>  (863) 
probe_placing close_aromatic_ring close_aromatic_ring close_aromatic_ring ring_built fix_Car close_aromatic_ring close_aromatic_ring close_aromatic_ring build_to_Nd0 build_DB_to_Cs2 build_SB_to_Cs2

>  <prot_clashes>  (863) 
2

>  <NBS phar>  (863) 
0.26000000000000006

>  <NBS_non-phar>  (863) 
0.6069745336260114

>  <NBS>  (863) 
0.8669745336260115

>  <source_stage>  (863) 
scored

>  <source_iter>  (863) 
11

>  <source_parent_mol>  (863) 
1

>  <source_scenario>  (863) 
1 2 4 0 6 0 1 0 3 0 1

>  <source_rank_in_scored_call>  (863) 
82

>  <source_current_task>  (863) 
no_task

>  <scenario>  (863) 
1 2 4 0 6 0 1 0 3 0

>  <protected_ring_attachments>  (863) 
0,1,3,6|1,3,6;3,1,0,2|1,0,2;4,5,0,2|5,0,2;5,4,3,6|4,3,6

>  <current_task>  (863) 
no_task

>  <rotatable_bond_torsions>  (863) 
1,0,2,10;0,2,10,12

$$$$

     RDKit          3D

 14 15  0  0  0  0  0  0  0  0999 V2000
  -28.6930   -7.6550  -31.2880 C   0  0  0  0  0  0  0  0  0  0  0  0
  -28.1940   -6.7160  -32.1150 N   0  0  0  0  0  0  0  0  0  0  0  0
  -28.8040   -9.1170  -31.7090 N   0  0  0  0  0  0  0  0  0  0  0  0
  -28.1080   -5.5650  -31.4380 C   0  0  0  0  0  0  0  0  0  0  0  0
  -28.5720   -5.8270  -30.1670 C   0  0  0  0  0  0  0  0  0  0  0  0
  -28.9390   -7.1360  -30.0720 N   0  0  0  0  0  0  0  0  0  0  0  0
  -27.6760   -4.3290  -31.8030 N   0  0  0  0  0  0  0  0  0  0  0  0
  -27.6980   -3.3310  -30.9120 C   0  0  0  0  0  0  0  0  0  0  0  0
  -28.1510   -3.5430  -29.6260 C   0  0  0  0  0  0  0  0  0  0  0  0
  -28.5920   -4.7960  -29.2490 C   0  0  0  0  0  0  0  0  0  0  0  0
  -29.2640  -10.0710  -31.0870 C   0  0  0  0  0  0  0  0  0  0  0  0
  -29.8880  -10.0210  -29.9670 O   0  0  0  0  0  0  0  0  0  0  0  0
  -29.1700  -11.5000  -31.6090 C   0  0  0  0  0  0  0  0  0  0  0  0
  -27.6810  -11.8740  -31.8120 C   0  0  0  0  0  0  0  0  0  0  0  0
  1  2  2  0
  1  3  1  0
  1  6  1  0
  2  4  1  0
  3 11  1  0
  4  7  1  0
  4  5  2  0
  5  6  1  0
  5 10  1  0
  7  8  2  0
  8  9  1  0
  9 10  2  0
 11 13  1  0
 11 12  2  0
 13 14  1  0
M  END
>  <name>  (864) 
Car Nac Nd0 Car Car Nd0 Nac Car Car Car Cs2 .=O Cs3 Cs3

>  <indices>  (864) 
[0, 1, 2]

>  <tasks>  (864) 
probe_placing close_aromatic_ring close_aromatic_ring close_aromatic_ring ring_built fix_Car close_aromatic_ring close_aromatic_ring close_aromatic_ring build_to_Nd0 build_DB_to_Cs2 build_SB_to_Cs2

>  <prot_clashes>  (864) 
3

>  <NBS phar>  (864) 
0.21999999999999997

>  <NBS_non-phar>  (864) 
0.6374084608895438

>  <NBS>  (864) 
0.8574084608895438

>  <source_stage>  (864) 
scored

>  <source_iter>  (864) 
11

>  <source_parent_mol>  (864) 
1

>  <source_scenario>  (864) 
1 2 4 0 6 0 1 0 3 0 1

>  <source_rank_in_scored_call>  (864) 
86

>  <source_current_task>  (864) 
no_task

>  <scenario>  (864) 
1 2 4 0 6 0 1 0 3 0

>  <protected_ring_attachments>  (864) 
0,1,3,6|1,3,6;3,1,0,2|1,0,2;4,5,0,2|5,0,2;5,4,3,6|4,3,6

>  <current_task>  (864) 
no_task

>  <rotatable_bond_torsions>  (864) 
1,0,2,10;0,2,10,12

$$$$

     RDKit          3D

 14 15  0  0  0  0  0  0  0  0999 V2000
  -28.7450   -8.2000  -30.7150 C   0  0  0  0  0  0  0  0  0  0  0  0
  -29.2120   -8.9680  -29.7120 N   0  0  0  0  0  0  0  0  0  0  0  0
  -28.6450   -6.6830  -30.5830 N   0  0  0  0  0  0  0  0  0  0  0  0
  -29.0700  -10.2510  -30.0670 C   0  0  0  0  0  0  0  0  0  0  0  0
  -28.5010  -10.2460  -31.3220 C   0  0  0  0  0  0  0  0  0  0  0  0
  -28.2980   -8.9610  -31.7290 N   0  0  0  0  0  0  0  0  0  0  0  0
  -29.3780  -11.4080  -29.4240 N   0  0  0  0  0  0  0  0  0  0  0  0
  -29.1280  -12.5810  -30.0180 C   0  0  0  0  0  0  0  0  0  0  0  0
  -28.5580  -12.6290  -31.2730 C   0  0  0  0  0  0  0  0  0  0  0  0
  -28.2430  -11.4570  -31.9320 C   0  0  0  0  0  0  0  0  0  0  0  0
  -28.2780   -5.8550  -31.4120 C   0  0  0  0  0  0  0  0  0  0  0  0
  -28.0140   -6.0780  -32.6480 O   0  0  0  0  0  0  0  0  0  0  0  0
  -28.1090   -4.3800  -31.0650 C   0  0  0  0  0  0  0  0  0  0  0  0
  -28.8980   -4.1020  -29.8280 C   0  0  0  0  0  0  0  0  0  0  0  0
  1  6  1  0
  1  3  1  0
  1  2  2  0
  2  4  1  0
  3 11  1  0
  4  5  2  0
  4  7  1  0
  5 10  1  0
  5  6  1  0
  7  8  2  0
  8  9  1  0
  9 10  2  0
 11 12  2  0
 11 13  1  0
 13 14  1  0
M  END
>  <name>  (865) 
Car Nac Nd0 Car Car Nd0 Nac Car Car Car Cs2 .=O Cs3 Cs3

>  <indices>  (865) 
[0, 1, 2]

>  <tasks>  (865) 
probe_placing close_aromatic_ring close_aromatic_ring close_aromatic_ring ring_built fix_Car close_aromatic_ring close_aromatic_ring close_aromatic_ring build_to_Nd0 build_DB_to_Cs2 build_SB_to_Cs2

>  <prot_clashes>  (865) 
0

>  <NBS phar>  (865) 
0.24

>  <NBS_non-phar>  (865) 
0.3966895512172154

>  <NBS>  (865) 
0.6366895512172154

>  <source_stage>  (865) 
scored

>  <source_iter>  (865) 
11

>  <source_parent_mol>  (865) 
1

>  <source_scenario>  (865) 
1 2 4 0 6 0 1 0 3 0 1

>  <source_rank_in_scored_call>  (865) 
102

>  <source_current_task>  (865) 
no_task

>  <scenario>  (865) 
1 2 4 0 6 0 1 0 3 0

>  <protected_ring_attachments>  (865) 
0,1,3,6|1,3,6;3,1,0,2|1,0,2;4,5,0,2|5,0,2;5,4,3,6|4,3,6

>  <current_task>  (865) 
no_task

>  <rotatable_bond_torsions>  (865) 
1,0,2,10;0,2,10,12

$$$$

     RDKit          3D

 17 19  0  0  0  0  0  0  0  0999 V2000
  -28.6520   -7.7050  -31.1830 C   0  0  0  0  0  0  0  0  0  0  0  0
  -28.1930   -6.8140  -32.0870 N   0  0  0  0  0  0  0  0  0  0  0  0
  -28.7660   -9.1900  -31.5100 N   0  0  0  0  0  0  0  0  0  0  0  0
  -28.0930   -5.6230  -31.4840 C   0  0  0  0  0  0  0  0  0  0  0  0
  -28.5060   -5.8080  -30.1820 C   0  0  0  0  0  0  0  0  0  0  0  0
  -28.8590   -7.1130  -29.9940 N   0  0  0  0  0  0  0  0  0  0  0  0
  -27.6860   -4.4080  -31.9420 N   0  0  0  0  0  0  0  0  0  0  0  0
  -27.6840   -3.3580  -31.1130 C   0  0  0  0  0  0  0  0  0  0  0  0
  -28.0880   -3.4920  -29.7990 C   0  0  0  0  0  0  0  0  0  0  0  0
  -28.5030   -4.7230  -29.3300 C   0  0  0  0  0  0  0  0  0  0  0  0
  -29.1920  -10.1080  -30.8110 C   0  0  0  0  0  0  0  0  0  0  0  0
  -29.7760   -9.9910  -29.6750 O   0  0  0  0  0  0  0  0  0  0  0  0
  -29.0470  -11.5300  -31.3000 C   0  0  0  0  0  0  0  0  0  0  0  0
  -28.6060  -11.7070  -32.5220 O   0  0  0  0  0  0  0  0  0  0  0  0
  -28.4620  -13.0020  -32.6910 C   0  0  0  0  0  0  0  0  0  0  0  0
  -28.8140  -13.6650  -31.5650 N   0  0  0  0  0  0  0  0  0  0  0  0
  -29.1970  -12.7360  -30.6480 C   0  0  0  0  0  0  0  0  0  0  0  0
  1  2  2  0
  1  3  1  0
  1  6  1  0
  2  4  1  0
  3 11  1  0
  4  7  2  0
  4  5  1  0
  5  6  1  0
  5 10  2  0
  7  8  1  0
  8  9  2  0
  9 10  1  0
 11 13  1  0
 11 12  2  0
 13 14  1  0
 13 17  2  0
 14 15  1  0
 15 16  2  0
 16 17  1  0
M  END
>  <name>  (866) 
Car Nac Nd0 Car Car Nd0 Nac Car Car Car Cs2 .=O Car O_a Car Nac Car

>  <indices>  (866) 
[0, 1, 2]

>  <tasks>  (866) 
probe_placing close_aromatic_ring close_aromatic_ring close_aromatic_ring ring_built fix_Car close_aromatic_ring close_aromatic_ring close_aromatic_ring build_to_Nd0 build_DB_to_Cs2 build_SB_to_Cs2 close_aromatic_ring close_aromatic_ring close_aromatic_ring

>  <prot_clashes>  (866) 
0

>  <NBS phar>  (866) 
0.21999999999999997

>  <NBS_non-phar>  (866) 
0.5019776961382698

>  <NBS>  (866) 
0.7219776961382698

>  <source_stage>  (866) 
scored

>  <source_iter>  (866) 
14

>  <source_parent_mol>  (866) 
0

>  <source_scenario>  (866) 
1 2 4 0 6 0 1 0 3 0 4 0 2 0

>  <source_rank_in_scored_call>  (866) 
0

>  <source_current_task>  (866) 
close_aromatic_ring

>  <scenario>  (866) 
1 2 4 0 6 0 1 0 3 0 4 0 2

>  <protected_ring_attachments>  (866) 
0,1,3,6|1,3,6;3,1,0,2|1,0,2;4,5,0,2|5,0,2;5,4,3,6|4,3,6

>  <current_task>  (866) 
no_task

>  <rotatable_bond_torsions>  (866) 
1,0,2,10;0,2,10,12;2,10,12,13;10,12,13,14;12,13,14,15

$$$$

     RDKit          3D

 17 19  0  0  0  0  0  0  0  0999 V2000
  -28.6060   -7.6880  -31.1170 C   0  0  0  0  0  0  0  0  0  0  0  0
  -28.1110   -6.8470  -32.0470 N   0  0  0  0  0  0  0  0  0  0  0  0
  -28.6900   -9.1920  -31.3580 N   0  0  0  0  0  0  0  0  0  0  0  0
  -28.0510   -5.6200  -31.5120 C   0  0  0  0  0  0  0  0  0  0  0  0
  -28.5300   -5.7340  -30.2260 C   0  0  0  0  0  0  0  0  0  0  0  0
  -28.8780   -7.0290  -29.9760 N   0  0  0  0  0  0  0  0  0  0  0  0
  -27.6340   -4.4320  -32.0200 N   0  0  0  0  0  0  0  0  0  0  0  0
  -27.6830   -3.3340  -31.2580 C   0  0  0  0  0  0  0  0  0  0  0  0
  -28.1510   -3.3960  -29.9630 C   0  0  0  0  0  0  0  0  0  0  0  0
  -28.5780   -4.6000  -29.4400 C   0  0  0  0  0  0  0  0  0  0  0  0
  -29.1430  -10.0710  -30.6290 C   0  0  0  0  0  0  0  0  0  0  0  0
  -29.7840   -9.8950  -29.5320 O   0  0  0  0  0  0  0  0  0  0  0  0
  -28.9660  -11.5300  -30.9970 C   0  0  0  0  0  0  0  0  0  0  0  0
  -29.5150  -12.5510  -30.3920 O   0  0  0  0  0  0  0  0  0  0  0  0
  -29.2210  -13.6460  -31.0560 C   0  0  0  0  0  0  0  0  0  0  0  0
  -28.4540  -13.3190  -32.1310 N   0  0  0  0  0  0  0  0  0  0  0  0
  -28.2800  -11.9790  -32.1110 C   0  0  0  0  0  0  0  0  0  0  0  0
  1  2  2  0
  1  3  1  0
  1  6  1  0
  2  4  1  0
  3 11  1  0
  4  7  2  0
  4  5  1  0
  5  6  1  0
  5 10  2  0
  7  8  1  0
  8  9  2  0
  9 10  1  0
 11 13  1  0
 11 12  2  0
 13 17  2  0
 13 14  1  0
 14 15  1  0
 15 16  2  0
 16 17  1  0
M  END
>  <name>  (867) 
Car Nac Nd0 Car Car Nd0 Nac Car Car Car Cs2 .=O Car O_a Car Nac Car

>  <indices>  (867) 
[0, 1, 2]

>  <tasks>  (867) 
probe_placing close_aromatic_ring close_aromatic_ring close_aromatic_ring ring_built fix_Car close_aromatic_ring close_aromatic_ring close_aromatic_ring build_to_Nd0 build_DB_to_Cs2 build_SB_to_Cs2 close_aromatic_ring close_aromatic_ring close_aromatic_ring

>  <prot_clashes>  (867) 
1

>  <NBS phar>  (867) 
0.18

>  <NBS_non-phar>  (867) 
0.5612471524406882

>  <NBS>  (867) 
0.7412471524406883

>  <source_stage>  (867) 
scored

>  <source_iter>  (867) 
14

>  <source_parent_mol>  (867) 
0

>  <source_scenario>  (867) 
1 2 4 0 6 0 1 0 3 0 4 2 1 0

>  <source_rank_in_scored_call>  (867) 
0

>  <source_current_task>  (867) 
close_aromatic_ring

>  <scenario>  (867) 
1 2 4 0 6 0 1 0 3 0 4 2 1

>  <protected_ring_attachments>  (867) 
0,1,3,6|1,3,6;3,1,0,2|1,0,2;4,5,0,2|5,0,2;5,4,3,6|4,3,6

>  <current_task>  (867) 
no_task

>  <rotatable_bond_torsions>  (867) 
1,0,2,10;0,2,10,12;2,10,12,13;10,12,13,14;12,13,14,15

$$$$

     RDKit          3D

 18 20  0  0  0  0  0  0  0  0999 V2000
  -28.5500   -7.7860  -31.1240 C   0  0  0  0  0  0  0  0  0  0  0  0
  -27.9310   -7.0030  -32.0300 N   0  0  0  0  0  0  0  0  0  0  0  0
  -28.5700   -9.3050  -31.2560 N   0  0  0  0  0  0  0  0  0  0  0  0
  -27.9760   -5.7380  -31.5900 C   0  0  0  0  0  0  0  0  0  0  0  0
  -28.6470   -5.7690  -30.3880 C   0  0  0  0  0  0  0  0  0  0  0  0
  -29.0070   -7.0510  -30.0930 N   0  0  0  0  0  0  0  0  0  0  0  0
  -27.5060   -4.5790  -32.1200 N   0  0  0  0  0  0  0  0  0  0  0  0
  -27.6910   -3.4290  -31.4630 C   0  0  0  0  0  0  0  0  0  0  0  0
  -28.3530   -3.4080  -30.2540 C   0  0  0  0  0  0  0  0  0  0  0  0
  -28.8350   -4.5810  -29.7100 C   0  0  0  0  0  0  0  0  0  0  0  0
  -29.1150  -10.1400  -30.5380 C   0  0  0  0  0  0  0  0  0  0  0  0
  -29.9210   -9.9010  -29.5700 O   0  0  0  0  0  0  0  0  0  0  0  0
  -28.8580  -11.6170  -30.7590 C   0  0  0  0  0  0  0  0  0  0  0  0
  -29.4770  -12.6050  -30.1670 O   0  0  0  0  0  0  0  0  0  0  0  0
  -29.0640  -13.7380  -30.6910 C   0  0  0  0  0  0  0  0  0  0  0  0
  -28.1460  -13.4700  -31.6580 N   0  0  0  0  0  0  0  0  0  0  0  0
  -28.0000  -12.1280  -31.7160 C   0  0  0  0  0  0  0  0  0  0  0  0
  -29.5610   -4.5660  -28.3880 C   0  0  0  0  0  0  0  0  0  0  0  0
  1  2  2  0
  1  3  1  0
  1  6  1  0
  2  4  1  0
  3 11  1  0
  4  7  2  0
  4  5  1  0
  5  6  1  0
  5 10  2  0
  7  8  1  0
  8  9  2  0
  9 10  1  0
 10 18  1  0
 11 13  1  0
 11 12  2  0
 13 17  2  0
 13 14  1  0
 14 15  1  0
 15 16  2  0
 16 17  1  0
M  END
>  <name>  (868) 
Car Nac Nd0 Car Car Nd0 Nac Car Car Car Cs2 .=O Car O_a Car Nac Car Cs3

>  <indices>  (868) 
[0, 1, 2]

>  <tasks>  (868) 
probe_placing close_aromatic_ring close_aromatic_ring close_aromatic_ring ring_built fix_Car close_aromatic_ring close_aromatic_ring close_aromatic_ring build_to_Nd0 build_DB_to_Cs2 build_SB_to_Cs2 close_aromatic_ring close_aromatic_ring close_aromatic_ring close_aromatic_ring

>  <prot_clashes>  (868) 
3

>  <NBS phar>  (868) 
0.36000000000000004

>  <NBS_non-phar>  (868) 
0.555313958062066

>  <NBS>  (868) 
0.915313958062066

>  <source_stage>  (868) 
scored

>  <source_iter>  (868) 
15

>  <source_parent_mol>  (868) 
0

>  <source_scenario>  (868) 
1 2 4 0 6 0 1 0 3 0 4 2 1 0 0

>  <source_rank_in_scored_call>  (868) 
7

>  <source_current_task>  (868) 
no_task

>  <scenario>  (868) 
1 2 4 0 6 0 1 0 3 0 4 2 1 0

>  <protected_ring_attachments>  (868) 
0,1,3,6|1,3,6;3,1,0,2|1,0,2;4,5,0,2|5,0,2;5,4,3,6|4,3,6

>  <current_task>  (868) 
no_task

>  <rotatable_bond_torsions>  (868) 
1,0,2,10;0,2,10,12;2,10,12,13

$$$$

     RDKit          3D

 18 20  0  0  0  0  0  0  0  0999 V2000
  -28.6370   -7.7180  -30.8820 C   0  0  0  0  0  0  0  0  0  0  0  0
  -28.0990   -6.8690  -31.7810 N   0  0  0  0  0  0  0  0  0  0  0  0
  -28.6420   -9.2270  -31.1050 N   0  0  0  0  0  0  0  0  0  0  0  0
  -28.1320   -5.6340  -31.2620 C   0  0  0  0  0  0  0  0  0  0  0  0
  -28.7130   -5.7510  -30.0190 C   0  0  0  0  0  0  0  0  0  0  0  0
  -29.0300   -7.0560  -29.7790 N   0  0  0  0  0  0  0  0  0  0  0  0
  -27.7210   -4.4370  -31.7530 N   0  0  0  0  0  0  0  0  0  0  0  0
  -27.8770   -3.3320  -31.0150 C   0  0  0  0  0  0  0  0  0  0  0  0
  -28.4500   -3.3970  -29.7630 C   0  0  0  0  0  0  0  0  0  0  0  0
  -28.8720   -4.6100  -29.2590 C   0  0  0  0  0  0  0  0  0  0  0  0
  -29.1200  -10.1140  -30.4020 C   0  0  0  0  0  0  0  0  0  0  0  0
  -29.8580   -9.9500  -29.3660 O   0  0  0  0  0  0  0  0  0  0  0  0
  -28.8560  -11.5690  -30.7310 C   0  0  0  0  0  0  0  0  0  0  0  0
  -29.4130  -12.6040  -30.1580 O   0  0  0  0  0  0  0  0  0  0  0  0
  -29.0220  -13.6940  -30.7770 C   0  0  0  0  0  0  0  0  0  0  0  0
  -28.1800  -13.3510  -31.7890 N   0  0  0  0  0  0  0  0  0  0  0  0
  -28.0610  -12.0040  -31.7760 C   0  0  0  0  0  0  0  0  0  0  0  0
  -28.6160   -2.1410  -28.9440 C   0  0  0  0  0  0  0  0  0  0  0  0
  1  2  2  0
  1  3  1  0
  1  6  1  0
  2  4  1  0
  3 11  1  0
  4  7  2  0
  4  5  1  0
  5  6  1  0
  5 10  2  0
  7  8  1  0
  8  9  2  0
  9 10  1  0
  9 18  1  0
 11 13  1  0
 11 12  2  0
 13 17  2  0
 13 14  1  0
 14 15  1  0
 15 16  2  0
 16 17  1  0
M  END
>  <name>  (869) 
Car Nac Nd0 Car Car Nd0 Nac Car Car Car Cs2 .=O Car O_a Car Nac Car Cs3

>  <indices>  (869) 
[0, 1, 2]

>  <tasks>  (869) 
probe_placing close_aromatic_ring close_aromatic_ring close_aromatic_ring ring_built fix_Car close_aromatic_ring close_aromatic_ring close_aromatic_ring build_to_Nd0 build_DB_to_Cs2 build_SB_to_Cs2 close_aromatic_ring close_aromatic_ring close_aromatic_ring close_aromatic_ring

>  <prot_clashes>  (869) 
1

>  <NBS phar>  (869) 
0.25999999999999995

>  <NBS_non-phar>  (869) 
0.5031647682189941

>  <NBS>  (869) 
0.7631647682189941

>  <source_stage>  (869) 
scored

>  <source_iter>  (869) 
15

>  <source_parent_mol>  (869) 
0

>  <source_scenario>  (869) 
1 2 4 0 6 0 1 0 3 0 4 2 1 0 0

>  <source_rank_in_scored_call>  (869) 
19

>  <source_current_task>  (869) 
no_task

>  <scenario>  (869) 
1 2 4 0 6 0 1 0 3 0 4 2 1 0

>  <protected_ring_attachments>  (869) 
0,1,3,6|1,3,6;3,1,0,2|1,0,2;4,5,0,2|5,0,2;5,4,3,6|4,3,6

>  <current_task>  (869) 
no_task

>  <rotatable_bond_torsions>  (869) 
1,0,2,10;0,2,10,12;2,10,12,13

$$$$

     RDKit          3D

 17 19  0  0  0  0  0  0  0  0999 V2000
  -28.1500   -7.5460  -30.8130 C   0  0  0  0  0  0  0  0  0  0  0  0
  -27.7360   -6.4870  -31.5310 N   0  0  0  0  0  0  0  0  0  0  0  0
  -27.9020   -8.9150  -31.0850 N   0  0  0  0  0  0  0  0  0  0  0  0
  -28.0620   -5.3360  -30.9160 C   0  0  0  0  0  0  0  0  0  0  0  0
  -28.7110   -5.7160  -29.7570 C   0  0  0  0  0  0  0  0  0  0  0  0
  -28.7640   -7.0700  -29.6920 N   0  0  0  0  0  0  0  0  0  0  0  0
  -27.8560   -4.0480  -31.2500 N   0  0  0  0  0  0  0  0  0  0  0  0
  -28.2940   -3.0450  -30.4370 C   0  0  0  0  0  0  0  0  0  0  0  0
  -28.9470   -3.3990  -29.2740 C   0  0  0  0  0  0  0  0  0  0  0  0
  -29.1710   -4.7070  -28.9000 C   0  0  0  0  0  0  0  0  0  0  0  0
  -28.4120  -10.0140  -30.3390 C   0  0  0  0  0  0  0  0  0  0  0  0
  -29.3890  -10.8140  -30.8980 C   0  0  0  0  0  0  0  0  0  0  0  0
  -29.8310  -11.9190  -30.2030 C   0  0  0  0  0  0  0  0  0  0  0  0
  -29.2800  -12.1960  -28.9570 C   0  0  0  0  0  0  0  0  0  0  0  0
  -28.3040  -11.3910  -28.4030 C   0  0  0  0  0  0  0  0  0  0  0  0
  -27.8580  -10.2810  -29.1030 C   0  0  0  0  0  0  0  0  0  0  0  0
  -29.9130  -10.5120  -32.1330 O   0  0  0  0  0  0  0  0  0  0  0  0
  1  2  2  0
  1  3  1  0
  1  6  1  0
  2  4  1  0
  3 11  1  0
  4  7  2  0
  4  5  1  0
  5  6  1  0
  5 10  2  0
  7  8  1  0
  8  9  2  0
  9 10  1  0
 11 12  2  0
 11 16  1  0
 12 17  1  0
 12 13  1  0
 13 14  2  0
 14 15  1  0
 15 16  2  0
M  CHG  1  17  -1
M  END
>  <name>  (870) 
Car Nac Nd0 Car Car Nd0 Nac Car Car Car Car Car Car Car Car Car .=O

>  <indices>  (870) 
[0, 1, 2]

>  <tasks>  (870) 
probe_placing close_aromatic_ring close_aromatic_ring close_aromatic_ring ring_built fix_Car close_aromatic_ring close_aromatic_ring close_aromatic_ring build_to_Nd0 close_aromatic_ring close_aromatic_ring close_aromatic_ring close_aromatic_ring close_aromatic_ring

>  <prot_clashes>  (870) 
1

>  <NBS phar>  (870) 
0.24

>  <NBS_non-phar>  (870) 
0.6176678713630227

>  <NBS>  (870) 
0.8576678713630227

>  <source_stage>  (870) 
scored

>  <source_iter>  (870) 
14

>  <source_parent_mol>  (870) 
0

>  <source_scenario>  (870) 
1 2 4 0 6 2 2 0 0 3 2 2 2 0

>  <source_rank_in_scored_call>  (870) 
0

>  <source_current_task>  (870) 
build_orthosubstituent_to_rotated_aniline_Nd0

>  <scenario>  (870) 
1 2 4 0 6 2 2 0 0 3 2 2 2

>  <protected_ring_attachments>  (870) 
0,1,3,6|1,3,6;3,1,0,2|1,0,2;4,5,0,2|5,0,2;5,4,3,6|4,3,6;12,11,10,2|11,10,2;14,15,10,2|15,10,2

>  <current_task>  (870) 
no_task

>  <rotatable_bond_torsions>  (870) 
1,0,2,10;0,2,10,11

>  <rotated_aniline_Nd0_dihedral>  (870) 
108.76

>  <rotated_aniline_Nd0_tolerance>  (870) 
60.0

>  <rotated_aniline_Nd0_context>  (870) 
diarylamine

>  <rotated_aniline_Nd0_substituent_idx>  (870) 
0

>  <rotated_aniline_Nd0_ring>  (870) 
11 12 13 14 15 10

>  <flag ortho>  (870) 


$$$$

     RDKit          3D

 17 19  0  0  0  0  0  0  0  0999 V2000
  -28.1730   -7.2550  -30.9170 C   0  0  0  0  0  0  0  0  0  0  0  0
  -27.6880   -6.2260  -31.6320 N   0  0  0  0  0  0  0  0  0  0  0  0
  -27.9760   -8.6380  -31.1610 N   0  0  0  0  0  0  0  0  0  0  0  0
  -27.9850   -5.0530  -31.0450 C   0  0  0  0  0  0  0  0  0  0  0  0
  -28.6910   -5.3870  -29.9060 C   0  0  0  0  0  0  0  0  0  0  0  0
  -28.8060   -6.7370  -29.8250 N   0  0  0  0  0  0  0  0  0  0  0  0
  -27.7110   -3.7800  -31.3880 N   0  0  0  0  0  0  0  0  0  0  0  0
  -28.1330   -2.7470  -30.6050 C   0  0  0  0  0  0  0  0  0  0  0  0
  -28.8420   -3.0560  -29.4620 C   0  0  0  0  0  0  0  0  0  0  0  0
  -29.1370   -4.3470  -29.0800 C   0  0  0  0  0  0  0  0  0  0  0  0
  -28.5600   -9.7030  -30.4200 C   0  0  0  0  0  0  0  0  0  0  0  0
  -29.5500  -10.4680  -31.0040 C   0  0  0  0  0  0  0  0  0  0  0  0
  -30.0640  -11.5410  -30.3110 C   0  0  0  0  0  0  0  0  0  0  0  0
  -29.5710  -11.8240  -29.0420 C   0  0  0  0  0  0  0  0  0  0  0  0
  -28.5810  -11.0540  -28.4630 C   0  0  0  0  0  0  0  0  0  0  0  0
  -28.0630   -9.9750  -29.1610 C   0  0  0  0  0  0  0  0  0  0  0  0
  -27.0750   -9.1920  -28.6120 O   0  0  0  0  0  0  0  0  0  0  0  0
  1  2  2  0
  1  3  1  0
  1  6  1  0
  2  4  1  0
  3 11  1  0
  4  7  2  0
  4  5  1  0
  5  6  1  0
  5 10  2  0
  7  8  1  0
  8  9  2  0
  9 10  1  0
 11 12  2  0
 11 16  1  0
 12 13  1  0
 13 14  2  0
 14 15  1  0
 15 16  2  0
 16 17  1  0
M  CHG  1  17  -1
M  END
>  <name>  (871) 
Car Nac Nd0 Car Car Nd0 Nac Car Car Car Car Car Car Car Car Car .=O

>  <indices>  (871) 
[0, 1, 2]

>  <tasks>  (871) 
probe_placing close_aromatic_ring close_aromatic_ring close_aromatic_ring ring_built fix_Car close_aromatic_ring close_aromatic_ring close_aromatic_ring build_to_Nd0 close_aromatic_ring close_aromatic_ring close_aromatic_ring close_aromatic_ring close_aromatic_ring

>  <prot_clashes>  (871) 
3

>  <NBS phar>  (871) 
0.12

>  <NBS_non-phar>  (871) 
0.5374502855188706

>  <NBS>  (871) 
0.6574502855188706

>  <source_stage>  (871) 
scored

>  <source_iter>  (871) 
14

>  <source_parent_mol>  (871) 
0

>  <source_scenario>  (871) 
1 2 4 0 6 2 2 0 0 3 2 2 2 0

>  <source_rank_in_scored_call>  (871) 
4

>  <source_current_task>  (871) 
build_orthosubstituent_to_rotated_aniline_Nd0

>  <scenario>  (871) 
1 2 4 0 6 2 2 0 0 3 2 2 2

>  <protected_ring_attachments>  (871) 
0,1,3,6|1,3,6;3,1,0,2|1,0,2;4,5,0,2|5,0,2;5,4,3,6|4,3,6;12,11,10,2|11,10,2;14,15,10,2|15,10,2

>  <current_task>  (871) 
no_task

>  <rotatable_bond_torsions>  (871) 
1,0,2,10;0,2,10,11

>  <rotated_aniline_Nd0_dihedral>  (871) 
108.76

>  <rotated_aniline_Nd0_tolerance>  (871) 
60.0

>  <rotated_aniline_Nd0_context>  (871) 
diarylamine

>  <rotated_aniline_Nd0_substituent_idx>  (871) 
0

>  <rotated_aniline_Nd0_ring>  (871) 
11 12 13 14 15 10

>  <flag ortho>  (871) 


$$$$

     RDKit          3D

 17 19  0  0  0  0  0  0  0  0999 V2000
  -28.1420   -7.1480  -30.8890 C   0  0  0  0  0  0  0  0  0  0  0  0
  -27.6480   -6.1240  -31.6060 N   0  0  0  0  0  0  0  0  0  0  0  0
  -27.9220   -8.5320  -31.1060 N   0  0  0  0  0  0  0  0  0  0  0  0
  -27.9760   -4.9460  -31.0460 C   0  0  0  0  0  0  0  0  0  0  0  0
  -28.7110   -5.2720  -29.9230 C   0  0  0  0  0  0  0  0  0  0  0  0
  -28.8130   -6.6210  -29.8240 N   0  0  0  0  0  0  0  0  0  0  0  0
  -27.7070   -3.6750  -31.4000 N   0  0  0  0  0  0  0  0  0  0  0  0
  -28.1640   -2.6350  -30.6460 C   0  0  0  0  0  0  0  0  0  0  0  0
  -28.9030   -2.9360  -29.5190 C   0  0  0  0  0  0  0  0  0  0  0  0
  -29.1940   -4.2250  -29.1260 C   0  0  0  0  0  0  0  0  0  0  0  0
  -28.5150   -9.5920  -30.3670 C   0  0  0  0  0  0  0  0  0  0  0  0
  -29.4780  -10.3780  -30.9670 C   0  0  0  0  0  0  0  0  0  0  0  0
  -30.0000  -11.4470  -30.2740 C   0  0  0  0  0  0  0  0  0  0  0  0
  -29.5420  -11.7050  -28.9870 C   0  0  0  0  0  0  0  0  0  0  0  0
  -28.5790  -10.9150  -28.3910 C   0  0  0  0  0  0  0  0  0  0  0  0
  -28.0520   -9.8400  -29.0900 C   0  0  0  0  0  0  0  0  0  0  0  0
  -26.9970   -8.9590  -28.4680 C   0  0  0  0  0  0  0  0  0  0  0  0
  1  2  2  0
  1  3  1  0
  1  6  1  0
  2  4  1  0
  3 11  1  0
  4  7  2  0
  4  5  1  0
  5  6  1  0
  5 10  2  0
  7  8  1  0
  8  9  2  0
  9 10  1  0
 11 12  2  0
 11 16  1  0
 12 13  1  0
 13 14  2  0
 14 15  1  0
 15 16  2  0
 16 17  1  0
M  END
>  <name>  (872) 
Car Nac Nd0 Car Car Nd0 Nac Car Car Car Car Car Car Car Car Car Cs3

>  <indices>  (872) 
[0, 1, 2]

>  <tasks>  (872) 
probe_placing close_aromatic_ring close_aromatic_ring close_aromatic_ring ring_built fix_Car close_aromatic_ring close_aromatic_ring close_aromatic_ring build_to_Nd0 close_aromatic_ring close_aromatic_ring close_aromatic_ring close_aromatic_ring close_aromatic_ring

>  <prot_clashes>  (872) 
4

>  <NBS phar>  (872) 
0.02

>  <NBS_non-phar>  (872) 
0.5171334883745979

>  <NBS>  (872) 
0.537133488374598

>  <source_stage>  (872) 
scored

>  <source_iter>  (872) 
14

>  <source_parent_mol>  (872) 
0

>  <source_scenario>  (872) 
1 2 4 0 6 2 2 0 0 3 2 2 2 0

>  <source_rank_in_scored_call>  (872) 
11

>  <source_current_task>  (872) 
build_orthosubstituent_to_rotated_aniline_Nd0

>  <scenario>  (872) 
1 2 4 0 6 2 2 0 0 3 2 2 2

>  <protected_ring_attachments>  (872) 
0,1,3,6|1,3,6;3,1,0,2|1,0,2;4,5,0,2|5,0,2;5,4,3,6|4,3,6;12,11,10,2|11,10,2;14,15,10,2|15,10,2

>  <current_task>  (872) 
no_task

>  <rotatable_bond_torsions>  (872) 
1,0,2,10;0,2,10,11

>  <rotated_aniline_Nd0_dihedral>  (872) 
108.76

>  <rotated_aniline_Nd0_tolerance>  (872) 
60.0

>  <rotated_aniline_Nd0_context>  (872) 
diarylamine

>  <rotated_aniline_Nd0_substituent_idx>  (872) 
0

>  <rotated_aniline_Nd0_ring>  (872) 
11 12 13 14 15 10

>  <flag ortho>  (872) 


$$$$

     RDKit          3D

 13 14  0  0  0  0  0  0  0  0999 V2000
  -28.3710   -7.6770  -31.3480 C   0  0  0  0  0  0  0  0  0  0  0  0
  -27.8690   -6.5910  -31.9590 N   0  0  0  0  0  0  0  0  0  0  0  0
  -28.2530   -9.0260  -31.7640 N   0  0  0  0  0  0  0  0  0  0  0  0
  -28.0820   -5.4870  -31.2240 C   0  0  0  0  0  0  0  0  0  0  0  0
  -28.7520   -5.9240  -30.0980 C   0  0  0  0  0  0  0  0  0  0  0  0
  -28.9300   -7.2680  -30.1730 N   0  0  0  0  0  0  0  0  0  0  0  0
  -27.7620   -4.1930  -31.4260 N   0  0  0  0  0  0  0  0  0  0  0  0
  -28.0980   -3.2420  -30.5050 C   0  0  0  0  0  0  0  0  0  0  0  0
  -28.7700   -3.6590  -29.3730 C   0  0  0  0  0  0  0  0  0  0  0  0
  -29.1100   -4.9740  -29.1350 C   0  0  0  0  0  0  0  0  0  0  0  0
  -28.6930  -10.1050  -31.3130 C   0  0  0  0  0  0  0  0  0  0  0  0
  -29.5360  -10.1740  -30.3360 O   0  0  0  0  0  0  0  0  0  0  0  0
  -28.3210  -11.4460  -31.8680 C   0  0  0  0  0  0  0  0  0  0  0  0
  1  2  2  0
  1  3  1  0
  1  6  1  0
  2  4  1  0
  3 11  1  0
  4  7  1  0
  4  5  2  0
  5  6  1  0
  5 10  1  0
  7  8  2  0
  8  9  1  0
  9 10  2  0
 11 13  1  0
 11 12  2  0
M  END
>  <name>  (873) 
Car Nac Nd0 Car Car Nd0 Nac Car Car Car Cs2 .=O Cs3

>  <indices>  (873) 
[0, 1, 2]

>  <tasks>  (873) 
probe_placing close_aromatic_ring close_aromatic_ring close_aromatic_ring ring_built fix_Car close_aromatic_ring close_aromatic_ring close_aromatic_ring build_to_Nd0 build_DB_to_Cs2

>  <prot_clashes>  (873) 
1

>  <NBS phar>  (873) 
0.36000000000000004

>  <NBS_non-phar>  (873) 
0.6565706546490009

>  <NBS>  (873) 
1.016570654649001

>  <source_stage>  (873) 
scored

>  <source_iter>  (873) 
10

>  <source_parent_mol>  (873) 
1

>  <source_scenario>  (873) 
1 2 4 0 6 2 2 0 1 1

>  <source_rank_in_scored_call>  (873) 
2

>  <source_current_task>  (873) 
build_SB_to_Cs2

>  <scenario>  (873) 
1 2 4 0 6 2 2 0 1

>  <protected_ring_attachments>  (873) 
0,1,3,6|1,3,6;3,1,0,2|1,0,2;4,5,0,2|5,0,2;5,4,3,6|4,3,6

>  <current_task>  (873) 
no_task

>  <rotatable_bond_torsions>  (873) 
1,0,2,10;0,2,10,11

$$$$

     RDKit          3D

 14 15  0  0  0  0  0  0  0  0999 V2000
  -28.4260   -7.7370  -31.3930 C   0  0  0  0  0  0  0  0  0  0  0  0
  -27.9150   -6.6460  -31.9860 N   0  0  0  0  0  0  0  0  0  0  0  0
  -28.3380   -9.0780  -31.8420 N   0  0  0  0  0  0  0  0  0  0  0  0
  -28.0980   -5.5560  -31.2230 C   0  0  0  0  0  0  0  0  0  0  0  0
  -28.7580   -6.0080  -30.0970 C   0  0  0  0  0  0  0  0  0  0  0  0
  -28.9610   -7.3460  -30.2000 N   0  0  0  0  0  0  0  0  0  0  0  0
  -27.7580   -4.2630  -31.4000 N   0  0  0  0  0  0  0  0  0  0  0  0
  -28.0640   -3.3280  -30.4520 C   0  0  0  0  0  0  0  0  0  0  0  0
  -28.7260   -3.7600  -29.3200 C   0  0  0  0  0  0  0  0  0  0  0  0
  -29.0850   -5.0740  -29.1070 C   0  0  0  0  0  0  0  0  0  0  0  0
  -28.7900  -10.1590  -31.4090 C   0  0  0  0  0  0  0  0  0  0  0  0
  -29.6190  -10.2370  -30.4210 O   0  0  0  0  0  0  0  0  0  0  0  0
  -28.4500  -11.4930  -32.0000 C   0  0  0  0  0  0  0  0  0  0  0  0
  -27.8920  -12.5030  -31.0220 C   0  0  0  0  0  0  0  0  0  0  0  0
  1  2  2  0
  1  3  1  0
  1  6  1  0
  2  4  1  0
  3 11  1  0
  4  7  1  0
  4  5  2  0
  5  6  1  0
  5 10  1  0
  7  8  2  0
  8  9  1  0
  9 10  2  0
 11 13  1  0
 11 12  2  0
 13 14  1  0
M  END
>  <name>  (874) 
Car Nac Nd0 Car Car Nd0 Nac Car Car Car Cs2 .=O Cs3 Cs3

>  <indices>  (874) 
[0, 1, 2]

>  <tasks>  (874) 
probe_placing close_aromatic_ring close_aromatic_ring close_aromatic_ring ring_built fix_Car close_aromatic_ring close_aromatic_ring close_aromatic_ring build_to_Nd0 build_DB_to_Cs2 build_SB_to_Cs2

>  <prot_clashes>  (874) 
1

>  <NBS phar>  (874) 
0.5000000000000001

>  <NBS_non-phar>  (874) 
0.6273068019321987

>  <NBS>  (874) 
1.1273068019321988

>  <source_stage>  (874) 
scored

>  <source_iter>  (874) 
11

>  <source_parent_mol>  (874) 
1

>  <source_scenario>  (874) 
1 2 4 0 6 2 2 0 1 1 1

>  <source_rank_in_scored_call>  (874) 
0

>  <source_current_task>  (874) 
no_task

>  <scenario>  (874) 
1 2 4 0 6 2 2 0 1 1

>  <protected_ring_attachments>  (874) 
0,1,3,6|1,3,6;3,1,0,2|1,0,2;4,5,0,2|5,0,2;5,4,3,6|4,3,6

>  <current_task>  (874) 
no_task

>  <rotatable_bond_torsions>  (874) 
1,0,2,10;0,2,10,12

$$$$

     RDKit          3D

 14 15  0  0  0  0  0  0  0  0999 V2000
  -28.3650   -7.7050  -31.3180 C   0  0  0  0  0  0  0  0  0  0  0  0
  -27.9360   -6.6030  -31.9550 N   0  0  0  0  0  0  0  0  0  0  0  0
  -28.2730   -9.0450  -31.7680 N   0  0  0  0  0  0  0  0  0  0  0  0
  -28.0890   -5.5140  -31.1830 C   0  0  0  0  0  0  0  0  0  0  0  0
  -28.6430   -5.9790  -30.0060 C   0  0  0  0  0  0  0  0  0  0  0  0
  -28.8130   -7.3230  -30.0880 N   0  0  0  0  0  0  0  0  0  0  0  0
  -27.8040   -4.2130  -31.3910 N   0  0  0  0  0  0  0  0  0  0  0  0
  -28.0600   -3.2820  -30.4250 C   0  0  0  0  0  0  0  0  0  0  0  0
  -28.6150   -3.7270  -29.2420 C   0  0  0  0  0  0  0  0  0  0  0  0
  -28.9170   -5.0500  -28.9960 C   0  0  0  0  0  0  0  0  0  0  0  0
  -28.6560  -10.1370  -31.2970 C   0  0  0  0  0  0  0  0  0  0  0  0
  -29.4000  -10.2330  -30.2450 O   0  0  0  0  0  0  0  0  0  0  0  0
  -28.3250  -11.4640  -31.9090 C   0  0  0  0  0  0  0  0  0  0  0  0
  -28.9080   -2.7130  -28.1620 C   0  0  0  0  0  0  0  0  0  0  0  0
  1  2  2  0
  1  3  1  0
  1  6  1  0
  2  4  1  0
  3 11  1  0
  4  7  1  0
  4  5  2  0
  5  6  1  0
  5 10  1  0
  7  8  2  0
  8  9  1  0
  9 10  2  0
  9 14  1  0
 11 13  1  0
 11 12  2  0
M  END
>  <name>  (875) 
Car Nac Nd0 Car Car Nd0 Nac Car Car Car Cs2 .=O Cs3 Cs3

>  <indices>  (875) 
[0, 1, 2]

>  <tasks>  (875) 
probe_placing close_aromatic_ring close_aromatic_ring close_aromatic_ring ring_built fix_Car close_aromatic_ring close_aromatic_ring close_aromatic_ring build_to_Nd0 build_DB_to_Cs2 build_SB_to_Cs2

>  <prot_clashes>  (875) 
2

>  <NBS phar>  (875) 
0.4200000000000001

>  <NBS_non-phar>  (875) 
0.656480244227818

>  <NBS>  (875) 
1.076480244227818

>  <source_stage>  (875) 
scored

>  <source_iter>  (875) 
11

>  <source_parent_mol>  (875) 
1

>  <source_scenario>  (875) 
1 2 4 0 6 2 2 0 1 1 1

>  <source_rank_in_scored_call>  (875) 
3

>  <source_current_task>  (875) 
no_task

>  <scenario>  (875) 
1 2 4 0 6 2 2 0 1 1

>  <protected_ring_attachments>  (875) 
0,1,3,6|1,3,6;3,1,0,2|1,0,2;4,5,0,2|5,0,2;5,4,3,6|4,3,6

>  <current_task>  (875) 
no_task

>  <rotatable_bond_torsions>  (875) 
1,0,2,10;0,2,10,12

$$$$

     RDKit          3D

 14 15  0  0  0  0  0  0  0  0999 V2000
  -28.1730   -7.7300  -31.2290 C   0  0  0  0  0  0  0  0  0  0  0  0
  -27.6770   -6.7050  -31.9420 N   0  0  0  0  0  0  0  0  0  0  0  0
  -27.9840   -9.1130  -31.4700 N   0  0  0  0  0  0  0  0  0  0  0  0
  -27.9710   -5.5310  -31.3600 C   0  0  0  0  0  0  0  0  0  0  0  0
  -28.6870   -5.8570  -30.2250 C   0  0  0  0  0  0  0  0  0  0  0  0
  -28.8130   -7.2070  -30.1440 N   0  0  0  0  0  0  0  0  0  0  0  0
  -27.6870   -4.2580  -31.7020 N   0  0  0  0  0  0  0  0  0  0  0  0
  -28.1080   -3.2180  -30.9230 C   0  0  0  0  0  0  0  0  0  0  0  0
  -28.8280   -3.5240  -29.7850 C   0  0  0  0  0  0  0  0  0  0  0  0
  -29.1330   -4.8140  -29.4060 C   0  0  0  0  0  0  0  0  0  0  0  0
  -28.4100  -10.1480  -30.9140 C   0  0  0  0  0  0  0  0  0  0  0  0
  -29.3040  -10.1340  -29.9810 O   0  0  0  0  0  0  0  0  0  0  0  0
  -27.9590  -11.5290  -31.2800 C   0  0  0  0  0  0  0  0  0  0  0  0
  -28.8740  -12.1170  -32.3650 C   0  0  0  0  0  0  0  0  0  0  0  0
  1  2  2  0
  1  3  1  0
  1  6  1  0
  2  4  1  0
  3 11  1  0
  4  7  1  0
  4  5  2  0
  5  6  1  0
  5 10  1  0
  7  8  2  0
  8  9  1  0
  9 10  2  0
 11 13  1  0
 11 12  2  0
 13 14  1  0
M  END
>  <name>  (876) 
Car Nac Nd0 Car Car Nd0 Nac Car Car Car Cs2 .=O Cs3 Cs3

>  <indices>  (876) 
[0, 1, 2]

>  <tasks>  (876) 
probe_placing close_aromatic_ring close_aromatic_ring close_aromatic_ring ring_built fix_Car close_aromatic_ring close_aromatic_ring close_aromatic_ring build_to_Nd0 build_DB_to_Cs2 build_SB_to_Cs2

>  <prot_clashes>  (876) 
1

>  <NBS phar>  (876) 
0.38000000000000006

>  <NBS_non-phar>  (876) 
0.6537492615836007

>  <NBS>  (876) 
1.0337492615836008

>  <source_stage>  (876) 
scored

>  <source_iter>  (876) 
11

>  <source_parent_mol>  (876) 
1

>  <source_scenario>  (876) 
1 2 4 0 6 2 2 0 1 1 1

>  <source_rank_in_scored_call>  (876) 
20

>  <source_current_task>  (876) 
no_task

>  <scenario>  (876) 
1 2 4 0 6 2 2 0 1 1

>  <protected_ring_attachments>  (876) 
0,1,3,6|1,3,6;3,1,0,2|1,0,2;4,5,0,2|5,0,2;5,4,3,6|4,3,6

>  <current_task>  (876) 
no_task

>  <rotatable_bond_torsions>  (876) 
1,0,2,10;0,2,10,12

$$$$

     RDKit          3D

 14 15  0  0  0  0  0  0  0  0999 V2000
  -28.3690   -7.6790  -31.3390 C   0  0  0  0  0  0  0  0  0  0  0  0
  -27.8570   -6.5920  -31.9400 N   0  0  0  0  0  0  0  0  0  0  0  0
  -28.2610   -9.0250  -31.7650 N   0  0  0  0  0  0  0  0  0  0  0  0
  -28.0630   -5.4920  -31.1970 C   0  0  0  0  0  0  0  0  0  0  0  0
  -28.7400   -5.9330  -30.0770 C   0  0  0  0  0  0  0  0  0  0  0  0
  -28.9280   -7.2740  -30.1630 N   0  0  0  0  0  0  0  0  0  0  0  0
  -27.7320   -4.1990  -31.3880 N   0  0  0  0  0  0  0  0  0  0  0  0
  -28.0630   -3.2530  -30.4610 C   0  0  0  0  0  0  0  0  0  0  0  0
  -28.7420   -3.6730  -29.3340 C   0  0  0  0  0  0  0  0  0  0  0  0
  -29.0930   -4.9870  -29.1070 C   0  0  0  0  0  0  0  0  0  0  0  0
  -28.7110  -10.1040  -31.3240 C   0  0  0  0  0  0  0  0  0  0  0  0
  -29.5570  -10.1740  -30.3500 O   0  0  0  0  0  0  0  0  0  0  0  0
  -28.3480  -11.4440  -31.8890 C   0  0  0  0  0  0  0  0  0  0  0  0
  -27.7010   -1.8020  -30.6600 C   0  0  0  0  0  0  0  0  0  0  0  0
  1  2  2  0
  1  3  1  0
  1  6  1  0
  2  4  1  0
  3 11  1  0
  4  7  1  0
  4  5  2  0
  5  6  1  0
  5 10  1  0
  7  8  2  0
  8 14  1  0
  8  9  1  0
  9 10  2  0
 11 13  1  0
 11 12  2  0
M  END
>  <name>  (877) 
Car Nac Nd0 Car Car Nd0 Nac Car Car Car Cs2 .=O Cs3 Cs3

>  <indices>  (877) 
[0, 1, 2]

>  <tasks>  (877) 
probe_placing close_aromatic_ring close_aromatic_ring close_aromatic_ring ring_built fix_Car close_aromatic_ring close_aromatic_ring close_aromatic_ring build_to_Nd0 build_DB_to_Cs2 build_SB_to_Cs2

>  <prot_clashes>  (877) 
2

>  <NBS phar>  (877) 
0.36000000000000004

>  <NBS_non-phar>  (877) 
0.6660082680838448

>  <NBS>  (877) 
1.026008268083845

>  <source_stage>  (877) 
scored

>  <source_iter>  (877) 
11

>  <source_parent_mol>  (877) 
1

>  <source_scenario>  (877) 
1 2 4 0 6 2 2 0 1 1 1

>  <source_rank_in_scored_call>  (877) 
23

>  <source_current_task>  (877) 
no_task

>  <scenario>  (877) 
1 2 4 0 6 2 2 0 1 1

>  <protected_ring_attachments>  (877) 
0,1,3,6|1,3,6;3,1,0,2|1,0,2;4,5,0,2|5,0,2;5,4,3,6|4,3,6

>  <current_task>  (877) 
no_task

>  <rotatable_bond_torsions>  (877) 
1,0,2,10;0,2,10,12

$$$$

     RDKit          3D

 14 15  0  0  0  0  0  0  0  0999 V2000
  -28.3380   -7.7130  -31.3420 C   0  0  0  0  0  0  0  0  0  0  0  0
  -27.8450   -6.6170  -31.9430 N   0  0  0  0  0  0  0  0  0  0  0  0
  -28.2070   -9.0570  -31.7700 N   0  0  0  0  0  0  0  0  0  0  0  0
  -28.0700   -5.5210  -31.1990 C   0  0  0  0  0  0  0  0  0  0  0  0
  -28.7380   -5.9740  -30.0780 C   0  0  0  0  0  0  0  0  0  0  0  0
  -28.9030   -7.3190  -30.1650 N   0  0  0  0  0  0  0  0  0  0  0  0
  -27.7610   -4.2230  -31.3890 N   0  0  0  0  0  0  0  0  0  0  0  0
  -28.1070   -3.2830  -30.4610 C   0  0  0  0  0  0  0  0  0  0  0  0
  -28.7780   -3.7160  -29.3340 C   0  0  0  0  0  0  0  0  0  0  0  0
  -29.1060   -5.0360  -29.1080 C   0  0  0  0  0  0  0  0  0  0  0  0
  -28.6380  -10.1440  -31.3290 C   0  0  0  0  0  0  0  0  0  0  0  0
  -29.4830  -10.2290  -30.3540 O   0  0  0  0  0  0  0  0  0  0  0  0
  -28.2530  -11.4770  -31.8950 C   0  0  0  0  0  0  0  0  0  0  0  0
  -28.0630  -12.5630  -30.8130 C   0  0  0  0  0  0  0  0  0  0  0  0
  1  2  2  0
  1  3  1  0
  1  6  1  0
  2  4  1  0
  3 11  1  0
  4  7  1  0
  4  5  2  0
  5  6  1  0
  5 10  1  0
  7  8  2  0
  8  9  1  0
  9 10  2  0
 11 13  1  0
 11 12  2  0
 13 14  1  0
M  END
>  <name>  (878) 
Car Nac Nd0 Car Car Nd0 Nac Car Car Car Cs2 .=O Cs3 Cs3

>  <indices>  (878) 
[0, 1, 2]

>  <tasks>  (878) 
probe_placing close_aromatic_ring close_aromatic_ring close_aromatic_ring ring_built fix_Car close_aromatic_ring close_aromatic_ring close_aromatic_ring build_to_Nd0 build_DB_to_Cs2 build_SB_to_Cs2

>  <prot_clashes>  (878) 
0

>  <NBS phar>  (878) 
0.38000000000000006

>  <NBS_non-phar>  (878) 
0.6298721177237374

>  <NBS>  (878) 
1.0098721177237375

>  <source_stage>  (878) 
scored

>  <source_iter>  (878) 
11

>  <source_parent_mol>  (878) 
1

>  <source_scenario>  (878) 
1 2 4 0 6 2 2 0 1 1 1

>  <source_rank_in_scored_call>  (878) 
31

>  <source_current_task>  (878) 
no_task

>  <scenario>  (878) 
1 2 4 0 6 2 2 0 1 1

>  <protected_ring_attachments>  (878) 
0,1,3,6|1,3,6;3,1,0,2|1,0,2;4,5,0,2|5,0,2;5,4,3,6|4,3,6

>  <current_task>  (878) 
no_task

>  <rotatable_bond_torsions>  (878) 
1,0,2,10;0,2,10,12

$$$$

     RDKit          3D

 14 15  0  0  0  0  0  0  0  0999 V2000
  -28.2800   -7.6890  -31.3390 C   0  0  0  0  0  0  0  0  0  0  0  0
  -27.8160   -6.5820  -31.9420 N   0  0  0  0  0  0  0  0  0  0  0  0
  -28.1170   -9.0300  -31.7660 N   0  0  0  0  0  0  0  0  0  0  0  0
  -28.0650   -5.4920  -31.1970 C   0  0  0  0  0  0  0  0  0  0  0  0
  -28.7170   -5.9610  -30.0740 C   0  0  0  0  0  0  0  0  0  0  0  0
  -28.8500   -7.3090  -30.1590 N   0  0  0  0  0  0  0  0  0  0  0  0
  -27.7890   -4.1860  -31.3890 N   0  0  0  0  0  0  0  0  0  0  0  0
  -28.1550   -3.2550  -30.4600 C   0  0  0  0  0  0  0  0  0  0  0  0
  -28.8100   -3.7040  -29.3300 C   0  0  0  0  0  0  0  0  0  0  0  0
  -29.1050   -5.0310  -29.1020 C   0  0  0  0  0  0  0  0  0  0  0  0
  -28.5190  -10.1270  -31.3230 C   0  0  0  0  0  0  0  0  0  0  0  0
  -29.3570  -10.2330  -30.3450 O   0  0  0  0  0  0  0  0  0  0  0  0
  -28.1040  -11.4500  -31.8900 C   0  0  0  0  0  0  0  0  0  0  0  0
  -28.0670  -12.6360  -30.9440 C   0  0  0  0  0  0  0  0  0  0  0  0
  1  2  2  0
  1  3  1  0
  1  6  1  0
  2  4  1  0
  3 11  1  0
  4  7  1  0
  4  5  2  0
  5  6  1  0
  5 10  1  0
  7  8  2  0
  8  9  1  0
  9 10  2  0
 11 13  1  0
 11 12  2  0
 13 14  1  0
M  END
>  <name>  (879) 
Car Nac Nd0 Car Car Nd0 Nac Car Car Car Cs2 .=O Cs3 Cs3

>  <indices>  (879) 
[0, 1, 2]

>  <tasks>  (879) 
probe_placing close_aromatic_ring close_aromatic_ring close_aromatic_ring ring_built fix_Car close_aromatic_ring close_aromatic_ring close_aromatic_ring build_to_Nd0 build_DB_to_Cs2 build_SB_to_Cs2

>  <prot_clashes>  (879) 
0

>  <NBS phar>  (879) 
0.36000000000000004

>  <NBS_non-phar>  (879) 
0.6206145286560059

>  <NBS>  (879) 
0.980614528656006

>  <source_stage>  (879) 
scored

>  <source_iter>  (879) 
11

>  <source_parent_mol>  (879) 
1

>  <source_scenario>  (879) 
1 2 4 0 6 2 2 0 1 1 1

>  <source_rank_in_scored_call>  (879) 
45

>  <source_current_task>  (879) 
no_task

>  <scenario>  (879) 
1 2 4 0 6 2 2 0 1 1

>  <protected_ring_attachments>  (879) 
0,1,3,6|1,3,6;3,1,0,2|1,0,2;4,5,0,2|5,0,2;5,4,3,6|4,3,6

>  <current_task>  (879) 
no_task

>  <rotatable_bond_torsions>  (879) 
1,0,2,10;0,2,10,12

$$$$

     RDKit          3D

 14 15  0  0  0  0  0  0  0  0999 V2000
  -28.2330   -7.6360  -31.5570 C   0  0  0  0  0  0  0  0  0  0  0  0
  -27.6660   -6.6590  -32.2850 N   0  0  0  0  0  0  0  0  0  0  0  0
  -28.1980   -9.0280  -31.8150 N   0  0  0  0  0  0  0  0  0  0  0  0
  -27.8120   -5.4670  -31.6830 C   0  0  0  0  0  0  0  0  0  0  0  0
  -28.5070   -5.7310  -30.5190 C   0  0  0  0  0  0  0  0  0  0  0  0
  -28.7660   -7.0610  -30.4400 N   0  0  0  0  0  0  0  0  0  0  0  0
  -27.4140   -4.2270  -32.0300 N   0  0  0  0  0  0  0  0  0  0  0  0
  -27.6910   -3.1580  -31.2260 C   0  0  0  0  0  0  0  0  0  0  0  0
  -28.3870   -3.4010  -30.0590 C   0  0  0  0  0  0  0  0  0  0  0  0
  -28.8060   -4.6570  -29.6740 C   0  0  0  0  0  0  0  0  0  0  0  0
  -28.7020  -10.0200  -31.2460 C   0  0  0  0  0  0  0  0  0  0  0  0
  -29.5480   -9.9250  -30.2730 O   0  0  0  0  0  0  0  0  0  0  0  0
  -28.4130  -11.4360  -31.6410 C   0  0  0  0  0  0  0  0  0  0  0  0
  -29.5620   -4.8660  -28.3850 C   0  0  0  0  0  0  0  0  0  0  0  0
  1  2  2  0
  1  3  1  0
  1  6  1  0
  2  4  1  0
  3 11  1  0
  4  7  1  0
  4  5  2  0
  5  6  1  0
  5 10  1  0
  7  8  2  0
  8  9  1  0
  9 10  2  0
 10 14  1  0
 11 13  1  0
 11 12  2  0
M  END
>  <name>  (880) 
Car Nac Nd0 Car Car Nd0 Nac Car Car Car Cs2 .=O Cs3 Cs3

>  <indices>  (880) 
[0, 1, 2]

>  <tasks>  (880) 
probe_placing close_aromatic_ring close_aromatic_ring close_aromatic_ring ring_built fix_Car close_aromatic_ring close_aromatic_ring close_aromatic_ring build_to_Nd0 build_DB_to_Cs2 build_SB_to_Cs2

>  <prot_clashes>  (880) 
4

>  <NBS phar>  (880) 
0.38000000000000006

>  <NBS_non-phar>  (880) 
0.5775038855416434

>  <NBS>  (880) 
0.9575038855416436

>  <source_stage>  (880) 
scored

>  <source_iter>  (880) 
11

>  <source_parent_mol>  (880) 
1

>  <source_scenario>  (880) 
1 2 4 0 6 2 2 0 1 1 1

>  <source_rank_in_scored_call>  (880) 
56

>  <source_current_task>  (880) 
no_task

>  <scenario>  (880) 
1 2 4 0 6 2 2 0 1 1

>  <protected_ring_attachments>  (880) 
0,1,3,6|1,3,6;3,1,0,2|1,0,2;4,5,0,2|5,0,2;5,4,3,6|4,3,6

>  <current_task>  (880) 
no_task

>  <rotatable_bond_torsions>  (880) 
1,0,2,10;0,2,10,12

$$$$

     RDKit          3D

 14 15  0  0  0  0  0  0  0  0999 V2000
  -28.2820   -7.6810  -31.3120 C   0  0  0  0  0  0  0  0  0  0  0  0
  -27.8600   -6.5680  -31.9350 N   0  0  0  0  0  0  0  0  0  0  0  0
  -28.1120   -9.0200  -31.7410 N   0  0  0  0  0  0  0  0  0  0  0  0
  -28.0990   -5.4790  -31.1840 C   0  0  0  0  0  0  0  0  0  0  0  0
  -28.7020   -5.9550  -30.0360 C   0  0  0  0  0  0  0  0  0  0  0  0
  -28.8140   -7.3060  -30.1130 N   0  0  0  0  0  0  0  0  0  0  0  0
  -27.8540   -4.1700  -31.3900 N   0  0  0  0  0  0  0  0  0  0  0  0
  -28.2010   -3.2420  -30.4500 C   0  0  0  0  0  0  0  0  0  0  0  0
  -28.8060   -3.6980  -29.2950 C   0  0  0  0  0  0  0  0  0  0  0  0
  -29.0690   -5.0290  -29.0530 C   0  0  0  0  0  0  0  0  0  0  0  0
  -28.4790  -10.1220  -31.2810 C   0  0  0  0  0  0  0  0  0  0  0  0
  -29.2780  -10.2390  -30.2720 O   0  0  0  0  0  0  0  0  0  0  0  0
  -28.0610  -11.4400  -31.8590 C   0  0  0  0  0  0  0  0  0  0  0  0
  -29.0950  -12.4930  -31.7580 C   0  0  0  0  0  0  0  0  0  0  0  0
  1  2  2  0
  1  3  1  0
  1  6  1  0
  2  4  1  0
  3 11  1  0
  4  7  1  0
  4  5  2  0
  5  6  1  0
  5 10  1  0
  7  8  2  0
  8  9  1  0
  9 10  2  0
 11 13  1  0
 11 12  2  0
 13 14  1  0
M  END
>  <name>  (881) 
Car Nac Nd0 Car Car Nd0 Nac Car Car Car Cs2 .=O Cs3 Cs3

>  <indices>  (881) 
[0, 1, 2]

>  <tasks>  (881) 
probe_placing close_aromatic_ring close_aromatic_ring close_aromatic_ring ring_built fix_Car close_aromatic_ring close_aromatic_ring close_aromatic_ring build_to_Nd0 build_DB_to_Cs2 build_SB_to_Cs2

>  <prot_clashes>  (881) 
2

>  <NBS phar>  (881) 
0.26000000000000006

>  <NBS_non-phar>  (881) 
0.6475915227617536

>  <NBS>  (881) 
0.9075915227617537

>  <source_stage>  (881) 
scored

>  <source_iter>  (881) 
11

>  <source_parent_mol>  (881) 
1

>  <source_scenario>  (881) 
1 2 4 0 6 2 2 0 1 1 1

>  <source_rank_in_scored_call>  (881) 
76

>  <source_current_task>  (881) 
no_task

>  <scenario>  (881) 
1 2 4 0 6 2 2 0 1 1

>  <protected_ring_attachments>  (881) 
0,1,3,6|1,3,6;3,1,0,2|1,0,2;4,5,0,2|5,0,2;5,4,3,6|4,3,6

>  <current_task>  (881) 
no_task

>  <rotatable_bond_torsions>  (881) 
1,0,2,10;0,2,10,12

$$$$

     RDKit          3D

 14 15  0  0  0  0  0  0  0  0999 V2000
  -28.2810   -7.6800  -31.3140 C   0  0  0  0  0  0  0  0  0  0  0  0
  -27.8580   -6.5660  -31.9350 N   0  0  0  0  0  0  0  0  0  0  0  0
  -28.1120   -9.0190  -31.7440 N   0  0  0  0  0  0  0  0  0  0  0  0
  -28.0970   -5.4790  -31.1840 C   0  0  0  0  0  0  0  0  0  0  0  0
  -28.7010   -5.9550  -30.0370 C   0  0  0  0  0  0  0  0  0  0  0  0
  -28.8150   -7.3060  -30.1160 N   0  0  0  0  0  0  0  0  0  0  0  0
  -27.8500   -4.1690  -31.3890 N   0  0  0  0  0  0  0  0  0  0  0  0
  -28.1980   -3.2410  -30.4490 C   0  0  0  0  0  0  0  0  0  0  0  0
  -28.8050   -3.6980  -29.2950 C   0  0  0  0  0  0  0  0  0  0  0  0
  -29.0690   -5.0300  -29.0540 C   0  0  0  0  0  0  0  0  0  0  0  0
  -28.4800  -10.1210  -31.2850 C   0  0  0  0  0  0  0  0  0  0  0  0
  -29.2810  -10.2380  -30.2770 O   0  0  0  0  0  0  0  0  0  0  0  0
  -28.0630  -11.4380  -31.8640 C   0  0  0  0  0  0  0  0  0  0  0  0
  -29.1140  -12.4570  -31.7410 C   0  0  0  0  0  0  0  0  0  0  0  0
  1  2  2  0
  1  3  1  0
  1  6  1  0
  2  4  1  0
  3 11  1  0
  4  7  1  0
  4  5  2  0
  5  6  1  0
  5 10  1  0
  7  8  2  0
  8  9  1  0
  9 10  2  0
 11 13  1  0
 11 12  2  0
 13 14  1  0
M  END
>  <name>  (882) 
Car Nac Nd0 Car Car Nd0 Nac Car Car Car Cs2 .=O Cs3 Cs3

>  <indices>  (882) 
[0, 1, 2]

>  <tasks>  (882) 
probe_placing close_aromatic_ring close_aromatic_ring close_aromatic_ring ring_built fix_Car close_aromatic_ring close_aromatic_ring close_aromatic_ring build_to_Nd0 build_DB_to_Cs2 build_SB_to_Cs2

>  <prot_clashes>  (882) 
2

>  <NBS phar>  (882) 
0.26000000000000006

>  <NBS_non-phar>  (882) 
0.6456270217895508

>  <NBS>  (882) 
0.9056270217895508

>  <source_stage>  (882) 
scored

>  <source_iter>  (882) 
11

>  <source_parent_mol>  (882) 
1

>  <source_scenario>  (882) 
1 2 4 0 6 2 2 0 1 1 1

>  <source_rank_in_scored_call>  (882) 
77

>  <source_current_task>  (882) 
no_task

>  <scenario>  (882) 
1 2 4 0 6 2 2 0 1 1

>  <protected_ring_attachments>  (882) 
0,1,3,6|1,3,6;3,1,0,2|1,0,2;4,5,0,2|5,0,2;5,4,3,6|4,3,6

>  <current_task>  (882) 
no_task

>  <rotatable_bond_torsions>  (882) 
1,0,2,10;0,2,10,12

$$$$

     RDKit          3D

 14 15  0  0  0  0  0  0  0  0999 V2000
  -28.6480   -7.7150  -31.4360 C   0  0  0  0  0  0  0  0  0  0  0  0
  -28.1410   -6.7340  -32.2010 N   0  0  0  0  0  0  0  0  0  0  0  0
  -28.7750   -9.0860  -31.7730 N   0  0  0  0  0  0  0  0  0  0  0  0
  -28.0770   -5.5800  -31.5170 C   0  0  0  0  0  0  0  0  0  0  0  0
  -28.5710   -5.8730  -30.2620 C   0  0  0  0  0  0  0  0  0  0  0  0
  -28.9220   -7.1840  -30.2110 N   0  0  0  0  0  0  0  0  0  0  0  0
  -27.6450   -4.3500  -31.8620 N   0  0  0  0  0  0  0  0  0  0  0  0
  -27.6840   -3.3220  -30.9630 C   0  0  0  0  0  0  0  0  0  0  0  0
  -28.1780   -3.5950  -29.7030 C   0  0  0  0  0  0  0  0  0  0  0  0
  -28.6240   -4.8410  -29.3170 C   0  0  0  0  0  0  0  0  0  0  0  0
  -29.2500  -10.0760  -31.1770 C   0  0  0  0  0  0  0  0  0  0  0  0
  -29.8970   -9.9880  -30.0620 O   0  0  0  0  0  0  0  0  0  0  0  0
  -29.1550  -11.4780  -31.6960 C   0  0  0  0  0  0  0  0  0  0  0  0
  -27.6730  -11.9780  -31.7950 C   0  0  0  0  0  0  0  0  0  0  0  0
  1  2  2  0
  1  3  1  0
  1  6  1  0
  2  4  1  0
  3 11  1  0
  4  7  1  0
  4  5  2  0
  5  6  1  0
  5 10  1  0
  7  8  2  0
  8  9  1  0
  9 10  2  0
 11 13  1  0
 11 12  2  0
 13 14  1  0
M  END
>  <name>  (883) 
Car Nac Nd0 Car Car Nd0 Nac Car Car Car Cs2 .=O Cs3 Cs3

>  <indices>  (883) 
[0, 1, 2]

>  <tasks>  (883) 
probe_placing close_aromatic_ring close_aromatic_ring close_aromatic_ring ring_built fix_Car close_aromatic_ring close_aromatic_ring close_aromatic_ring build_to_Nd0 build_DB_to_Cs2 build_SB_to_Cs2

>  <prot_clashes>  (883) 
2

>  <NBS phar>  (883) 
0.19999999999999998

>  <NBS_non-phar>  (883) 
0.6875266347612653

>  <NBS>  (883) 
0.8875266347612653

>  <source_stage>  (883) 
scored

>  <source_iter>  (883) 
11

>  <source_parent_mol>  (883) 
1

>  <source_scenario>  (883) 
1 2 4 0 6 2 2 0 1 1 1

>  <source_rank_in_scored_call>  (883) 
80

>  <source_current_task>  (883) 
no_task

>  <scenario>  (883) 
1 2 4 0 6 2 2 0 1 1

>  <protected_ring_attachments>  (883) 
0,1,3,6|1,3,6;3,1,0,2|1,0,2;4,5,0,2|5,0,2;5,4,3,6|4,3,6

>  <current_task>  (883) 
no_task

>  <rotatable_bond_torsions>  (883) 
1,0,2,10;0,2,10,12

$$$$

     RDKit          3D

 14 15  0  0  0  0  0  0  0  0999 V2000
  -28.6150   -7.7610  -31.4440 C   0  0  0  0  0  0  0  0  0  0  0  0
  -28.1280   -6.7570  -32.1920 N   0  0  0  0  0  0  0  0  0  0  0  0
  -28.7210   -9.1260  -31.8060 N   0  0  0  0  0  0  0  0  0  0  0  0
  -28.0790   -5.6150  -31.4870 C   0  0  0  0  0  0  0  0  0  0  0  0
  -28.5630   -5.9400  -30.2350 C   0  0  0  0  0  0  0  0  0  0  0  0
  -28.8930   -7.2570  -30.2070 N   0  0  0  0  0  0  0  0  0  0  0  0
  -27.6690   -4.3720  -31.8100 N   0  0  0  0  0  0  0  0  0  0  0  0
  -27.7210   -3.3620  -30.8920 C   0  0  0  0  0  0  0  0  0  0  0  0
  -28.2040   -3.6670  -29.6350 C   0  0  0  0  0  0  0  0  0  0  0  0
  -28.6290   -4.9270  -29.2710 C   0  0  0  0  0  0  0  0  0  0  0  0
  -29.1770  -10.1350  -31.2270 C   0  0  0  0  0  0  0  0  0  0  0  0
  -29.8200  -10.0800  -30.1070 O   0  0  0  0  0  0  0  0  0  0  0  0
  -29.0610  -11.5250  -31.7730 C   0  0  0  0  0  0  0  0  0  0  0  0
  -27.6780  -12.2290  -31.5160 C   0  0  0  0  0  0  0  0  0  0  0  0
  1  2  2  0
  1  3  1  0
  1  6  1  0
  2  4  1  0
  3 11  1  0
  4  7  1  0
  4  5  2  0
  5  6  1  0
  5 10  1  0
  7  8  2  0
  8  9  1  0
  9 10  2  0
 11 13  1  0
 11 12  2  0
 13 14  1  0
M  END
>  <name>  (884) 
Car Nac Nd0 Car Car Nd0 Nac Car Car Car Cs2 .=O Cs3 Cs3

>  <indices>  (884) 
[0, 1, 2]

>  <tasks>  (884) 
probe_placing close_aromatic_ring close_aromatic_ring close_aromatic_ring ring_built fix_Car close_aromatic_ring close_aromatic_ring close_aromatic_ring build_to_Nd0 build_DB_to_Cs2 build_SB_to_Cs2

>  <prot_clashes>  (884) 
0

>  <NBS phar>  (884) 
0.19999999999999998

>  <NBS_non-phar>  (884) 
0.6779628481183734

>  <NBS>  (884) 
0.8779628481183733

>  <source_stage>  (884) 
scored

>  <source_iter>  (884) 
11

>  <source_parent_mol>  (884) 
1

>  <source_scenario>  (884) 
1 2 4 0 6 2 2 0 1 1 1

>  <source_rank_in_scored_call>  (884) 
84

>  <source_current_task>  (884) 
no_task

>  <scenario>  (884) 
1 2 4 0 6 2 2 0 1 1

>  <protected_ring_attachments>  (884) 
0,1,3,6|1,3,6;3,1,0,2|1,0,2;4,5,0,2|5,0,2;5,4,3,6|4,3,6

>  <current_task>  (884) 
no_task

>  <rotatable_bond_torsions>  (884) 
1,0,2,10;0,2,10,12

$$$$

     RDKit          3D

 14 15  0  0  0  0  0  0  0  0999 V2000
  -28.6540   -7.7070  -31.4200 C   0  0  0  0  0  0  0  0  0  0  0  0
  -28.1580   -6.7230  -32.1880 N   0  0  0  0  0  0  0  0  0  0  0  0
  -28.7720   -9.0790  -31.7540 N   0  0  0  0  0  0  0  0  0  0  0  0
  -28.1000   -5.5670  -31.5070 C   0  0  0  0  0  0  0  0  0  0  0  0
  -28.5860   -5.8630  -30.2480 C   0  0  0  0  0  0  0  0  0  0  0  0
  -28.9270   -7.1760  -30.1940 N   0  0  0  0  0  0  0  0  0  0  0  0
  -27.6800   -4.3350  -31.8560 N   0  0  0  0  0  0  0  0  0  0  0  0
  -27.7220   -3.3060  -30.9580 C   0  0  0  0  0  0  0  0  0  0  0  0
  -28.2070   -3.5810  -29.6950 C   0  0  0  0  0  0  0  0  0  0  0  0
  -28.6420   -4.8300  -29.3050 C   0  0  0  0  0  0  0  0  0  0  0  0
  -29.2360  -10.0720  -31.1540 C   0  0  0  0  0  0  0  0  0  0  0  0
  -29.8780   -9.9880  -30.0350 O   0  0  0  0  0  0  0  0  0  0  0  0
  -29.1330  -11.4740  -31.6710 C   0  0  0  0  0  0  0  0  0  0  0  0
  -27.6450  -11.8600  -31.8480 C   0  0  0  0  0  0  0  0  0  0  0  0
  1  2  2  0
  1  3  1  0
  1  6  1  0
  2  4  1  0
  3 11  1  0
  4  7  1  0
  4  5  2  0
  5  6  1  0
  5 10  1  0
  7  8  2  0
  8  9  1  0
  9 10  2  0
 11 13  1  0
 11 12  2  0
 13 14  1  0
M  END
>  <name>  (885) 
Car Nac Nd0 Car Car Nd0 Nac Car Car Car Cs2 .=O Cs3 Cs3

>  <indices>  (885) 
[0, 1, 2]

>  <tasks>  (885) 
probe_placing close_aromatic_ring close_aromatic_ring close_aromatic_ring ring_built fix_Car close_aromatic_ring close_aromatic_ring close_aromatic_ring build_to_Nd0 build_DB_to_Cs2 build_SB_to_Cs2

>  <prot_clashes>  (885) 
2

>  <NBS phar>  (885) 
0.19999999999999998

>  <NBS_non-phar>  (885) 
0.6775524275643485

>  <NBS>  (885) 
0.8775524275643485

>  <source_stage>  (885) 
scored

>  <source_iter>  (885) 
11

>  <source_parent_mol>  (885) 
1

>  <source_scenario>  (885) 
1 2 4 0 6 2 2 0 1 1 1

>  <source_rank_in_scored_call>  (885) 
85

>  <source_current_task>  (885) 
no_task

>  <scenario>  (885) 
1 2 4 0 6 2 2 0 1 1

>  <protected_ring_attachments>  (885) 
0,1,3,6|1,3,6;3,1,0,2|1,0,2;4,5,0,2|5,0,2;5,4,3,6|4,3,6

>  <current_task>  (885) 
no_task

>  <rotatable_bond_torsions>  (885) 
1,0,2,10;0,2,10,12

$$$$

     RDKit          3D

 14 15  0  0  0  0  0  0  0  0999 V2000
  -28.2470   -7.7160  -31.2520 C   0  0  0  0  0  0  0  0  0  0  0  0
  -27.8190   -6.6110  -31.8850 N   0  0  0  0  0  0  0  0  0  0  0  0
  -28.0520   -9.0620  -31.6500 N   0  0  0  0  0  0  0  0  0  0  0  0
  -28.0890   -5.5110  -31.1630 C   0  0  0  0  0  0  0  0  0  0  0  0
  -28.7170   -5.9710  -30.0220 C   0  0  0  0  0  0  0  0  0  0  0  0
  -28.8140   -7.3240  -30.0750 N   0  0  0  0  0  0  0  0  0  0  0  0
  -27.8510   -4.2030  -31.3880 N   0  0  0  0  0  0  0  0  0  0  0  0
  -28.2320   -3.2610  -30.4760 C   0  0  0  0  0  0  0  0  0  0  0  0
  -28.8630   -3.7010  -29.3290 C   0  0  0  0  0  0  0  0  0  0  0  0
  -29.1190   -5.0300  -29.0670 C   0  0  0  0  0  0  0  0  0  0  0  0
  -28.4200  -10.1580  -31.1780 C   0  0  0  0  0  0  0  0  0  0  0  0
  -29.2440  -10.2640  -30.1890 O   0  0  0  0  0  0  0  0  0  0  0  0
  -27.9740  -11.4830  -31.7190 C   0  0  0  0  0  0  0  0  0  0  0  0
  -29.0870  -12.3220  -32.3020 C   0  0  0  0  0  0  0  0  0  0  0  0
  1  2  2  0
  1  3  1  0
  1  6  1  0
  2  4  1  0
  3 11  1  0
  4  7  1  0
  4  5  2  0
  5  6  1  0
  5 10  1  0
  7  8  2  0
  8  9  1  0
  9 10  2  0
 11 13  1  0
 11 12  2  0
 13 14  1  0
M  END
>  <name>  (886) 
Car Nac Nd0 Car Car Nd0 Nac Car Car Car Cs2 .=O Cs3 Cs3

>  <indices>  (886) 
[0, 1, 2]

>  <tasks>  (886) 
probe_placing close_aromatic_ring close_aromatic_ring close_aromatic_ring ring_built fix_Car close_aromatic_ring close_aromatic_ring close_aromatic_ring build_to_Nd0 build_DB_to_Cs2 build_SB_to_Cs2

>  <prot_clashes>  (886) 
3

>  <NBS phar>  (886) 
0.24000000000000005

>  <NBS_non-phar>  (886) 
0.5787019729614258

>  <NBS>  (886) 
0.8187019729614258

>  <source_stage>  (886) 
scored

>  <source_iter>  (886) 
11

>  <source_parent_mol>  (886) 
1

>  <source_scenario>  (886) 
1 2 4 0 6 2 2 0 1 1 1

>  <source_rank_in_scored_call>  (886) 
91

>  <source_current_task>  (886) 
no_task

>  <scenario>  (886) 
1 2 4 0 6 2 2 0 1 1

>  <protected_ring_attachments>  (886) 
0,1,3,6|1,3,6;3,1,0,2|1,0,2;4,5,0,2|5,0,2;5,4,3,6|4,3,6

>  <current_task>  (886) 
no_task

>  <rotatable_bond_torsions>  (886) 
1,0,2,10;0,2,10,12

$$$$

     RDKit          3D

 14 15  0  0  0  0  0  0  0  0999 V2000
  -28.7120   -8.2590  -30.7220 C   0  0  0  0  0  0  0  0  0  0  0  0
  -29.1970   -9.0910  -29.7860 N   0  0  0  0  0  0  0  0  0  0  0  0
  -28.6030   -6.8490  -30.6420 N   0  0  0  0  0  0  0  0  0  0  0  0
  -29.0440  -10.3730  -30.1590 C   0  0  0  0  0  0  0  0  0  0  0  0
  -28.4290  -10.3210  -31.3940 C   0  0  0  0  0  0  0  0  0  0  0  0
  -28.2240   -9.0240  -31.7410 N   0  0  0  0  0  0  0  0  0  0  0  0
  -29.3710  -11.5330  -29.5550 N   0  0  0  0  0  0  0  0  0  0  0  0
  -29.1010  -12.7290  -30.1570 C   0  0  0  0  0  0  0  0  0  0  0  0
  -28.4880  -12.6980  -31.3930 C   0  0  0  0  0  0  0  0  0  0  0  0
  -28.1390  -11.5290  -32.0370 C   0  0  0  0  0  0  0  0  0  0  0  0
  -28.2090   -5.9720  -31.4400 C   0  0  0  0  0  0  0  0  0  0  0  0
  -27.9070   -6.2180  -32.6730 O   0  0  0  0  0  0  0  0  0  0  0  0
  -28.0680   -4.5260  -31.0750 C   0  0  0  0  0  0  0  0  0  0  0  0
  -28.9030   -4.2550  -29.8570 C   0  0  0  0  0  0  0  0  0  0  0  0
  1  6  1  0
  1  3  1  0
  1  2  2  0
  2  4  1  0
  3 11  1  0
  4  5  2  0
  4  7  1  0
  5 10  1  0
  5  6  1  0
  7  8  2  0
  8  9  1  0
  9 10  2  0
 11 12  2  0
 11 13  1  0
 13 14  1  0
M  END
>  <name>  (887) 
Car Nac Nd0 Car Car Nd0 Nac Car Car Car Cs2 .=O Cs3 Cs3

>  <indices>  (887) 
[0, 1, 2]

>  <tasks>  (887) 
probe_placing close_aromatic_ring close_aromatic_ring close_aromatic_ring ring_built fix_Car close_aromatic_ring close_aromatic_ring close_aromatic_ring build_to_Nd0 build_DB_to_Cs2 build_SB_to_Cs2

>  <prot_clashes>  (887) 
1

>  <NBS phar>  (887) 
0.24

>  <NBS_non-phar>  (887) 
0.43994150842939106

>  <NBS>  (887) 
0.679941508429391

>  <source_stage>  (887) 
scored

>  <source_iter>  (887) 
11

>  <source_parent_mol>  (887) 
1

>  <source_scenario>  (887) 
1 2 4 0 6 2 2 0 1 1 1

>  <source_rank_in_scored_call>  (887) 
98

>  <source_current_task>  (887) 
no_task

>  <scenario>  (887) 
1 2 4 0 6 2 2 0 1 1

>  <protected_ring_attachments>  (887) 
0,1,3,6|1,3,6;3,1,0,2|1,0,2;4,5,0,2|5,0,2;5,4,3,6|4,3,6

>  <current_task>  (887) 
no_task

>  <rotatable_bond_torsions>  (887) 
1,0,2,10;0,2,10,12

$$$$

     RDKit          3D

 16 17  0  0  0  0  0  0  0  0999 V2000
  -28.4850   -7.8180  -31.2430 C   0  0  0  0  0  0  0  0  0  0  0  0
  -27.9180   -6.6880  -31.6970 N   0  0  0  0  0  0  0  0  0  0  0  0
  -28.4070   -9.1080  -31.8210 N   0  0  0  0  0  0  0  0  0  0  0  0
  -28.1120   -5.6760  -30.8350 C   0  0  0  0  0  0  0  0  0  0  0  0
  -28.8380   -6.2190  -29.7930 C   0  0  0  0  0  0  0  0  0  0  0  0
  -29.0680   -7.5340  -30.0420 N   0  0  0  0  0  0  0  0  0  0  0  0
  -27.7340   -4.3810  -30.8630 N   0  0  0  0  0  0  0  0  0  0  0  0
  -28.0640   -3.5390  -29.8420 C   0  0  0  0  0  0  0  0  0  0  0  0
  -28.7910   -4.0640  -28.7910 C   0  0  0  0  0  0  0  0  0  0  0  0
  -29.1910   -5.3810  -28.7300 C   0  0  0  0  0  0  0  0  0  0  0  0
  -28.9040  -10.2140  -31.5230 C   0  0  0  0  0  0  0  0  0  0  0  0
  -29.7830  -10.3680  -30.5870 O   0  0  0  0  0  0  0  0  0  0  0  0
  -28.5670  -11.4920  -32.2310 C   0  0  0  0  0  0  0  0  0  0  0  0
  -27.6720   -2.1670  -29.8570 C   0  0  0  0  0  0  0  0  0  0  0  0
  -27.3420   -1.0140  -29.8700 C   0  0  0  0  0  0  0  0  0  0  0  0
  -26.9380    0.4020  -29.8860 C   0  0  0  0  0  0  0  0  0  0  0  0
  1  3  1  0
  1  2  2  0
  1  6  1  0
  2  4  1  0
  3 11  1  0
  4  7  1  0
  4  5  2  0
  5  6  1  0
  5 10  1  0
  7  8  2  0
  8 14  1  0
  8  9  1  0
  9 10  2  0
 11 13  1  0
 11 12  2  0
 14 15  3  0
 15 16  1  0
M  END
>  <name>  (888) 
Car Nac Nd0 Car Car Nd0 Nac Car Car Car Cs2 .=O Cs3 Csp Csp Cs3

>  <indices>  (888) 
[0, 1, 2]

>  <tasks>  (888) 
probe_placing close_aromatic_ring close_aromatic_ring close_aromatic_ring ring_built fix_Car close_aromatic_ring close_aromatic_ring close_aromatic_ring build_to_Nd0 build_DB_to_Cs2 build_SB_to_Cs2 no_task build_to_Csp

>  <prot_clashes>  (888) 
4

>  <NBS phar>  (888) 
0.26

>  <NBS_non-phar>  (888) 
0.5799754858016968

>  <NBS>  (888) 
0.8399754858016968

>  <source_stage>  (888) 
scored

>  <source_iter>  (888) 
13

>  <source_parent_mol>  (888) 
0

>  <source_scenario>  (888) 
1 2 4 0 6 2 2 0 1 1 1 5 0

>  <source_rank_in_scored_call>  (888) 
4

>  <source_current_task>  (888) 
build_to_terminal_Csp

>  <scenario>  (888) 
1 2 4 0 6 2 2 0 1 1 1 5

>  <protected_ring_attachments>  (888) 
0,1,3,6|1,3,6;3,1,0,2|1,0,2;4,5,0,2|5,0,2;5,4,3,6|4,3,6

>  <current_task>  (888) 
no_task

>  <rotatable_bond_torsions>  (888) 
1,0,2,10;0,2,10,12;6,7,13,14

$$$$

     RDKit          3D

 17 19  0  0  0  0  0  0  0  0999 V2000
  -28.5060   -7.7600  -31.2580 C   0  0  0  0  0  0  0  0  0  0  0  0
  -28.0130   -6.8780  -32.1420 N   0  0  0  0  0  0  0  0  0  0  0  0
  -28.5850   -9.1660  -31.4050 N   0  0  0  0  0  0  0  0  0  0  0  0
  -27.9990   -5.6380  -31.6220 C   0  0  0  0  0  0  0  0  0  0  0  0
  -28.5120   -5.7720  -30.3480 C   0  0  0  0  0  0  0  0  0  0  0  0
  -28.8240   -7.0740  -30.1220 N   0  0  0  0  0  0  0  0  0  0  0  0
  -27.5980   -4.4520  -32.1250 N   0  0  0  0  0  0  0  0  0  0  0  0
  -27.6880   -3.3130  -31.3780 C   0  0  0  0  0  0  0  0  0  0  0  0
  -28.2000   -3.4260  -30.1000 C   0  0  0  0  0  0  0  0  0  0  0  0
  -28.6160   -4.6230  -29.5540 C   0  0  0  0  0  0  0  0  0  0  0  0
  -29.0420  -10.0800  -30.6880 C   0  0  0  0  0  0  0  0  0  0  0  0
  -29.7170   -9.8630  -29.6060 O   0  0  0  0  0  0  0  0  0  0  0  0
  -28.8430  -11.5000  -31.0240 C   0  0  0  0  0  0  0  0  0  0  0  0
  -29.4000  -12.5430  -30.4190 O   0  0  0  0  0  0  0  0  0  0  0  0
  -29.0800  -13.6590  -31.0560 C   0  0  0  0  0  0  0  0  0  0  0  0
  -28.2860  -13.3300  -32.1150 N   0  0  0  0  0  0  0  0  0  0  0  0
  -28.1200  -11.9770  -32.1220 C   0  0  0  0  0  0  0  0  0  0  0  0
  1  2  2  0
  1  3  1  0
  1  6  1  0
  2  4  1  0
  3 11  1  0
  4  7  2  0
  4  5  1  0
  5  6  1  0
  5 10  2  0
  7  8  1  0
  8  9  2  0
  9 10  1  0
 11 13  1  0
 11 12  2  0
 13 17  2  0
 13 14  1  0
 14 15  1  0
 15 16  2  0
 16 17  1  0
M  END
>  <name>  (889) 
Car Nac Nd0 Car Car Nd0 Nac Car Car Car Cs2 .=O Car O_a Car Nac Car

>  <indices>  (889) 
[0, 1, 2]

>  <tasks>  (889) 
probe_placing close_aromatic_ring close_aromatic_ring close_aromatic_ring ring_built fix_Car close_aromatic_ring close_aromatic_ring close_aromatic_ring build_to_Nd0 build_DB_to_Cs2 build_SB_to_Cs2 close_aromatic_ring close_aromatic_ring close_aromatic_ring

>  <prot_clashes>  (889) 
1

>  <NBS phar>  (889) 
0.36000000000000004

>  <NBS_non-phar>  (889) 
0.6224417966954848

>  <NBS>  (889) 
0.9824417966954848

>  <source_stage>  (889) 
scored

>  <source_iter>  (889) 
14

>  <source_parent_mol>  (889) 
0

>  <source_scenario>  (889) 
1 2 4 0 6 2 2 0 1 1 4 0 1 0

>  <source_rank_in_scored_call>  (889) 
0

>  <source_current_task>  (889) 
close_aromatic_ring

>  <scenario>  (889) 
1 2 4 0 6 2 2 0 1 1 4 0 1

>  <protected_ring_attachments>  (889) 
0,1,3,6|1,3,6;3,1,0,2|1,0,2;4,5,0,2|5,0,2;5,4,3,6|4,3,6

>  <current_task>  (889) 
no_task

>  <rotatable_bond_torsions>  (889) 
1,0,2,10;0,2,10,12;2,10,12,13;10,12,13,14;12,13,14,15

$$$$

     RDKit          3D

 17 19  0  0  0  0  0  0  0  0999 V2000
  -28.6170   -7.7630  -31.2530 C   0  0  0  0  0  0  0  0  0  0  0  0
  -28.1640   -6.8100  -32.0820 N   0  0  0  0  0  0  0  0  0  0  0  0
  -28.7420   -9.1480  -31.5260 N   0  0  0  0  0  0  0  0  0  0  0  0
  -28.0820   -5.6260  -31.4500 C   0  0  0  0  0  0  0  0  0  0  0  0
  -28.5070   -5.8730  -30.1600 C   0  0  0  0  0  0  0  0  0  0  0  0
  -28.8350   -7.1860  -30.0370 N   0  0  0  0  0  0  0  0  0  0  0  0
  -27.6860   -4.4070  -31.8670 N   0  0  0  0  0  0  0  0  0  0  0  0
  -27.6930   -3.3450  -31.0120 C   0  0  0  0  0  0  0  0  0  0  0  0
  -28.1170   -3.5700  -29.7160 C   0  0  0  0  0  0  0  0  0  0  0  0
  -28.5260   -4.8040  -29.2560 C   0  0  0  0  0  0  0  0  0  0  0  0
  -29.1720  -10.1180  -30.8660 C   0  0  0  0  0  0  0  0  0  0  0  0
  -29.7630   -9.9910  -29.7230 O   0  0  0  0  0  0  0  0  0  0  0  0
  -29.0260  -11.5030  -31.3780 C   0  0  0  0  0  0  0  0  0  0  0  0
  -28.5830  -11.6640  -32.6040 O   0  0  0  0  0  0  0  0  0  0  0  0
  -28.4380  -12.9650  -32.8010 C   0  0  0  0  0  0  0  0  0  0  0  0
  -28.7940  -13.6390  -31.6850 N   0  0  0  0  0  0  0  0  0  0  0  0
  -29.1770  -12.7250  -30.7500 C   0  0  0  0  0  0  0  0  0  0  0  0
  1  2  2  0
  1  3  1  0
  1  6  1  0
  2  4  1  0
  3 11  1  0
  4  7  2  0
  4  5  1  0
  5  6  1  0
  5 10  2  0
  7  8  1  0
  8  9  2  0
  9 10  1  0
 11 13  1  0
 11 12  2  0
 13 14  1  0
 13 17  2  0
 14 15  1  0
 15 16  2  0
 16 17  1  0
M  END
>  <name>  (890) 
Car Nac Nd0 Car Car Nd0 Nac Car Car Car Cs2 .=O Car O_a Car Nac Car

>  <indices>  (890) 
[0, 1, 2]

>  <tasks>  (890) 
probe_placing close_aromatic_ring close_aromatic_ring close_aromatic_ring ring_built fix_Car close_aromatic_ring close_aromatic_ring close_aromatic_ring build_to_Nd0 build_DB_to_Cs2 build_SB_to_Cs2 close_aromatic_ring close_aromatic_ring close_aromatic_ring

>  <prot_clashes>  (890) 
0

>  <NBS phar>  (890) 
0.21999999999999997

>  <NBS_non-phar>  (890) 
0.48372509900261373

>  <NBS>  (890) 
0.7037250990026137

>  <source_stage>  (890) 
scored

>  <source_iter>  (890) 
14

>  <source_parent_mol>  (890) 
0

>  <source_scenario>  (890) 
1 2 4 0 6 2 2 0 1 1 4 3 2 0

>  <source_rank_in_scored_call>  (890) 
0

>  <source_current_task>  (890) 
close_aromatic_ring

>  <scenario>  (890) 
1 2 4 0 6 2 2 0 1 1 4 3 2

>  <protected_ring_attachments>  (890) 
0,1,3,6|1,3,6;3,1,0,2|1,0,2;4,5,0,2|5,0,2;5,4,3,6|4,3,6

>  <current_task>  (890) 
no_task

>  <rotatable_bond_torsions>  (890) 
1,0,2,10;0,2,10,12;2,10,12,13;10,12,13,14;12,13,14,15

$$$$

     RDKit          3D

 16 18  0  0  0  0  0  0  0  0999 V2000
  -28.1040   -7.5660  -30.9670 C   0  0  0  0  0  0  0  0  0  0  0  0
  -27.6630   -6.5630  -31.7720 N   0  0  0  0  0  0  0  0  0  0  0  0
  -27.8680   -9.0400  -31.1950 N   0  0  0  0  0  0  0  0  0  0  0  0
  -28.0620   -5.3710  -31.2380 C   0  0  0  0  0  0  0  0  0  0  0  0
  -28.7490   -5.6970  -30.0890 C   0  0  0  0  0  0  0  0  0  0  0  0
  -28.7730   -7.0320  -29.9250 N   0  0  0  0  0  0  0  0  0  0  0  0
  -29.1330   -4.4980  -29.5720 N   0  0  0  0  0  0  0  0  0  0  0  0
  -28.7250   -3.5370  -30.3260 O   0  0  0  0  0  0  0  0  0  0  0  0
  -28.0600   -3.9960  -31.3630 C   0  0  0  0  0  0  0  0  0  0  0  0
  -28.3900  -10.0070  -30.4040 C   0  0  0  0  0  0  0  0  0  0  0  0
  -29.3850  -10.8360  -30.8810 C   0  0  0  0  0  0  0  0  0  0  0  0
  -29.8620  -11.8800  -30.0780 C   0  0  0  0  0  0  0  0  0  0  0  0
  -29.3550  -12.0920  -28.8220 C   0  0  0  0  0  0  0  0  0  0  0  0
  -28.3590  -11.2690  -28.3360 C   0  0  0  0  0  0  0  0  0  0  0  0
  -27.8920  -10.2320  -29.1420 C   0  0  0  0  0  0  0  0  0  0  0  0
  -29.9050  -10.6380  -32.1380 O   0  0  0  0  0  0  0  0  0  0  0  0
  1  2  2  0
  1  3  1  0
  1  6  1  0
  2  4  1  0
  3 10  1  0
  4  9  2  0
  4  5  1  0
  5  6  1  0
  5  7  2  0
  7  8  1  0
  8  9  1  0
 10 11  2  0
 10 15  1  0
 11 16  1  0
 11 12  1  0
 12 13  2  0
 13 14  1  0
 14 15  2  0
M  CHG  1  16  -1
M  END
>  <name>  (891) 
Car Nac Nd0 Car Car Nd0 Nac O_a Car Car Car Car Car Car Car .=O

>  <indices>  (891) 
[0, 1, 2]

>  <tasks>  (891) 
probe_placing close_aromatic_ring close_aromatic_ring close_aromatic_ring ring_built fix_Car close_aromatic_ring close_aromatic_ring build_to_Nd0 close_aromatic_ring close_aromatic_ring close_aromatic_ring close_aromatic_ring close_aromatic_ring

>  <prot_clashes>  (891) 
1

>  <NBS phar>  (891) 
0.24

>  <NBS_non-phar>  (891) 
0.5996874570846558

>  <NBS>  (891) 
0.8396874570846558

>  <source_stage>  (891) 
scored

>  <source_iter>  (891) 
13

>  <source_parent_mol>  (891) 
0

>  <source_scenario>  (891) 
1 2 4 0 9 8 0 0 1 0 0 0 0

>  <source_rank_in_scored_call>  (891) 
4

>  <source_current_task>  (891) 
build_orthosubstituent_to_rotated_aniline_Nd0

>  <scenario>  (891) 
1 2 4 0 9 8 0 0 1 0 0 0

>  <protected_ring_attachments>  (891) 
0,5,4,6|5,4,6;1,3,4,6|3,4,6;3,1,0,2|1,0,2;4,5,0,2|5,0,2;11,10,9,2|10,9,2;13,14,9,2|14,9,2

>  <current_task>  (891) 
no_task

>  <rotatable_bond_torsions>  (891) 
1,0,2,9;0,2,9,10

>  <rotated_aniline_Nd0_dihedral>  (891) 
110.21

>  <rotated_aniline_Nd0_tolerance>  (891) 
60.0

>  <rotated_aniline_Nd0_context>  (891) 
diarylamine

>  <rotated_aniline_Nd0_substituent_idx>  (891) 
0

>  <rotated_aniline_Nd0_ring>  (891) 
10 11 12 13 14 9

>  <flag ortho>  (891) 


$$$$

     RDKit          3D

 16 18  0  0  0  0  0  0  0  0999 V2000
  -28.0990   -7.1130  -30.8600 C   0  0  0  0  0  0  0  0  0  0  0  0
  -27.6010   -6.0490  -31.5450 N   0  0  0  0  0  0  0  0  0  0  0  0
  -27.8330   -8.5640  -31.1830 N   0  0  0  0  0  0  0  0  0  0  0  0
  -28.0520   -4.9040  -30.9540 C   0  0  0  0  0  0  0  0  0  0  0  0
  -28.8290   -5.3210  -29.8950 C   0  0  0  0  0  0  0  0  0  0  0  0
  -28.8560   -6.6640  -29.8390 N   0  0  0  0  0  0  0  0  0  0  0  0
  -29.2640   -4.1660  -29.3190 N   0  0  0  0  0  0  0  0  0  0  0  0
  -28.8030   -3.1480  -29.9590 O   0  0  0  0  0  0  0  0  0  0  0  0
  -28.0510   -3.5240  -30.9700 C   0  0  0  0  0  0  0  0  0  0  0  0
  -28.4120   -9.5920  -30.5150 C   0  0  0  0  0  0  0  0  0  0  0  0
  -29.3560  -10.3820  -31.1360 C   0  0  0  0  0  0  0  0  0  0  0  0
  -29.8900  -11.4870  -30.4610 C   0  0  0  0  0  0  0  0  0  0  0  0
  -29.4870  -11.7960  -29.1870 C   0  0  0  0  0  0  0  0  0  0  0  0
  -28.5420  -11.0120  -28.5570 C   0  0  0  0  0  0  0  0  0  0  0  0
  -28.0170   -9.9140  -29.2380 C   0  0  0  0  0  0  0  0  0  0  0  0
  -27.0770   -9.1290  -28.6130 O   0  0  0  0  0  0  0  0  0  0  0  0
  1  2  2  0
  1  3  1  0
  1  6  1  0
  2  4  1  0
  3 10  1  0
  4  9  2  0
  4  5  1  0
  5  6  1  0
  5  7  2  0
  7  8  1  0
  8  9  1  0
 10 11  2  0
 10 15  1  0
 11 12  1  0
 12 13  2  0
 13 14  1  0
 14 15  2  0
 15 16  1  0
M  CHG  1  16  -1
M  END
>  <name>  (892) 
Car Nac Nd0 Car Car Nd0 Nac O_a Car Car Car Car Car Car Car .=O

>  <indices>  (892) 
[0, 1, 2]

>  <tasks>  (892) 
probe_placing close_aromatic_ring close_aromatic_ring close_aromatic_ring ring_built fix_Car close_aromatic_ring close_aromatic_ring build_to_Nd0 close_aromatic_ring close_aromatic_ring close_aromatic_ring close_aromatic_ring close_aromatic_ring

>  <prot_clashes>  (892) 
2

>  <NBS phar>  (892) 
0.13999999999999999

>  <NBS_non-phar>  (892) 
0.5946054458618164

>  <NBS>  (892) 
0.7346054458618164

>  <source_stage>  (892) 
scored

>  <source_iter>  (892) 
13

>  <source_parent_mol>  (892) 
0

>  <source_scenario>  (892) 
1 2 4 0 9 8 0 0 1 0 0 0 0

>  <source_rank_in_scored_call>  (892) 
7

>  <source_current_task>  (892) 
build_orthosubstituent_to_rotated_aniline_Nd0

>  <scenario>  (892) 
1 2 4 0 9 8 0 0 1 0 0 0

>  <protected_ring_attachments>  (892) 
0,5,4,6|5,4,6;1,3,4,6|3,4,6;3,1,0,2|1,0,2;4,5,0,2|5,0,2;11,10,9,2|10,9,2;13,14,9,2|14,9,2

>  <current_task>  (892) 
no_task

>  <rotatable_bond_torsions>  (892) 
1,0,2,9;0,2,9,10

>  <rotated_aniline_Nd0_dihedral>  (892) 
110.21

>  <rotated_aniline_Nd0_tolerance>  (892) 
60.0

>  <rotated_aniline_Nd0_context>  (892) 
diarylamine

>  <rotated_aniline_Nd0_substituent_idx>  (892) 
0

>  <rotated_aniline_Nd0_ring>  (892) 
10 11 12 13 14 9

>  <flag ortho>  (892) 


$$$$

     RDKit          3D

 16 18  0  0  0  0  0  0  0  0999 V2000
  -28.0560   -6.9210  -30.9050 C   0  0  0  0  0  0  0  0  0  0  0  0
  -27.5540   -5.8700  -31.6080 N   0  0  0  0  0  0  0  0  0  0  0  0
  -27.8130   -8.3780  -31.2160 N   0  0  0  0  0  0  0  0  0  0  0  0
  -27.9830   -4.7130  -31.0240 C   0  0  0  0  0  0  0  0  0  0  0  0
  -28.7520   -5.1090  -29.9510 C   0  0  0  0  0  0  0  0  0  0  0  0
  -28.7940   -6.4510  -29.8790 N   0  0  0  0  0  0  0  0  0  0  0  0
  -29.1650   -3.9430  -29.3810 N   0  0  0  0  0  0  0  0  0  0  0  0
  -28.6990   -2.9380  -30.0380 O   0  0  0  0  0  0  0  0  0  0  0  0
  -27.9650   -3.3330  -31.0540 C   0  0  0  0  0  0  0  0  0  0  0  0
  -28.3950   -9.3910  -30.5310 C   0  0  0  0  0  0  0  0  0  0  0  0
  -29.3580  -10.1760  -31.1320 C   0  0  0  0  0  0  0  0  0  0  0  0
  -29.8970  -11.2670  -30.4370 C   0  0  0  0  0  0  0  0  0  0  0  0
  -29.4810  -11.5680  -29.1660 C   0  0  0  0  0  0  0  0  0  0  0  0
  -28.5180  -10.7890  -28.5570 C   0  0  0  0  0  0  0  0  0  0  0  0
  -27.9890   -9.7050  -29.2560 C   0  0  0  0  0  0  0  0  0  0  0  0
  -26.9370   -8.8500  -28.5920 C   0  0  0  0  0  0  0  0  0  0  0  0
  1  2  2  0
  1  3  1  0
  1  6  1  0
  2  4  1  0
  3 10  1  0
  4  9  2  0
  4  5  1  0
  5  6  1  0
  5  7  2  0
  7  8  1  0
  8  9  1  0
 10 11  2  0
 10 15  1  0
 11 12  1  0
 12 13  2  0
 13 14  1  0
 14 15  2  0
 15 16  1  0
M  END
>  <name>  (893) 
Car Nac Nd0 Car Car Nd0 Nac O_a Car Car Car Car Car Car Car Cs3

>  <indices>  (893) 
[0, 1, 2]

>  <tasks>  (893) 
probe_placing close_aromatic_ring close_aromatic_ring close_aromatic_ring ring_built fix_Car close_aromatic_ring close_aromatic_ring build_to_Nd0 close_aromatic_ring close_aromatic_ring close_aromatic_ring close_aromatic_ring close_aromatic_ring

>  <prot_clashes>  (893) 
4

>  <NBS phar>  (893) 
0.02

>  <NBS_non-phar>  (893) 
0.5938445925712585

>  <NBS>  (893) 
0.6138445925712586

>  <source_stage>  (893) 
scored

>  <source_iter>  (893) 
13

>  <source_parent_mol>  (893) 
0

>  <source_scenario>  (893) 
1 2 4 0 9 8 0 0 1 0 0 0 0

>  <source_rank_in_scored_call>  (893) 
23

>  <source_current_task>  (893) 
build_orthosubstituent_to_rotated_aniline_Nd0

>  <scenario>  (893) 
1 2 4 0 9 8 0 0 1 0 0 0

>  <protected_ring_attachments>  (893) 
0,5,4,6|5,4,6;1,3,4,6|3,4,6;3,1,0,2|1,0,2;4,5,0,2|5,0,2;11,10,9,2|10,9,2;13,14,9,2|14,9,2

>  <current_task>  (893) 
no_task

>  <rotatable_bond_torsions>  (893) 
1,0,2,9;0,2,9,10

>  <rotated_aniline_Nd0_dihedral>  (893) 
110.21

>  <rotated_aniline_Nd0_tolerance>  (893) 
60.0

>  <rotated_aniline_Nd0_context>  (893) 
diarylamine

>  <rotated_aniline_Nd0_substituent_idx>  (893) 
0

>  <rotated_aniline_Nd0_ring>  (893) 
10 11 12 13 14 9

>  <flag ortho>  (893) 


$$$$

     RDKit          3D

 16 18  0  0  0  0  0  0  0  0999 V2000
  -27.8220   -7.4650  -30.6030 C   0  0  0  0  0  0  0  0  0  0  0  0
  -27.3540   -6.5880  -31.5310 N   0  0  0  0  0  0  0  0  0  0  0  0
  -27.5530   -8.9510  -30.5910 N   0  0  0  0  0  0  0  0  0  0  0  0
  -27.7970   -5.3370  -31.2070 C   0  0  0  0  0  0  0  0  0  0  0  0
  -28.5390   -5.4990  -30.0560 C   0  0  0  0  0  0  0  0  0  0  0  0
  -28.5510   -6.7940  -29.6900 N   0  0  0  0  0  0  0  0  0  0  0  0
  -28.9660   -4.2440  -29.7490 N   0  0  0  0  0  0  0  0  0  0  0  0
  -28.5330   -3.4010  -30.6210 O   0  0  0  0  0  0  0  0  0  0  0  0
  -27.8090   -3.9980  -31.5410 C   0  0  0  0  0  0  0  0  0  0  0  0
  -28.1020   -9.7980  -29.6870 C   0  0  0  0  0  0  0  0  0  0  0  0
  -29.0580  -10.7110  -30.0790 C   0  0  0  0  0  0  0  0  0  0  0  0
  -29.5620  -11.6310  -29.1500 C   0  0  0  0  0  0  0  0  0  0  0  0
  -29.1180  -11.6370  -27.8530 C   0  0  0  0  0  0  0  0  0  0  0  0
  -28.1610  -10.7270  -27.4510 C   0  0  0  0  0  0  0  0  0  0  0  0
  -27.6670   -9.8160  -28.3830 C   0  0  0  0  0  0  0  0  0  0  0  0
  -29.5600  -10.7200  -31.5010 C   0  0  0  0  0  0  0  0  0  0  0  0
  1  2  2  0
  1  3  1  0
  1  6  1  0
  2  4  1  0
  3 10  1  0
  4  9  2  0
  4  5  1  0
  5  7  2  0
  5  6  1  0
  7  8  1  0
  8  9  1  0
 10 11  2  0
 10 15  1  0
 11 16  1  0
 11 12  1  0
 12 13  2  0
 13 14  1  0
 14 15  2  0
M  END
>  <name>  (894) 
Car Nac Nd0 Car Car Nd0 Nac O_a Car Car Car Car Car Car Car Cs3

>  <indices>  (894) 
[0, 1, 2]

>  <tasks>  (894) 
probe_placing close_aromatic_ring close_aromatic_ring close_aromatic_ring ring_built fix_Car close_aromatic_ring close_aromatic_ring build_to_Nd0 close_aromatic_ring close_aromatic_ring close_aromatic_ring close_aromatic_ring close_aromatic_ring

>  <prot_clashes>  (894) 
2

>  <NBS phar>  (894) 
0.13999999999999999

>  <NBS_non-phar>  (894) 
0.451412558555603

>  <NBS>  (894) 
0.591412558555603

>  <source_stage>  (894) 
scored

>  <source_iter>  (894) 
13

>  <source_parent_mol>  (894) 
0

>  <source_scenario>  (894) 
1 2 4 0 9 8 0 0 1 0 0 0 0

>  <source_rank_in_scored_call>  (894) 
27

>  <source_current_task>  (894) 
build_orthosubstituent_to_rotated_aniline_Nd0

>  <scenario>  (894) 
1 2 4 0 9 8 0 0 1 0 0 0

>  <protected_ring_attachments>  (894) 
0,5,4,6|5,4,6;1,3,4,6|3,4,6;3,1,0,2|1,0,2;4,5,0,2|5,0,2;11,10,9,2|10,9,2;13,14,9,2|14,9,2

>  <current_task>  (894) 
no_task

>  <rotatable_bond_torsions>  (894) 
1,0,2,9;0,2,9,10

>  <rotated_aniline_Nd0_dihedral>  (894) 
110.21

>  <rotated_aniline_Nd0_tolerance>  (894) 
60.0

>  <rotated_aniline_Nd0_context>  (894) 
diarylamine

>  <rotated_aniline_Nd0_substituent_idx>  (894) 
0

>  <rotated_aniline_Nd0_ring>  (894) 
10 11 12 13 14 9

>  <flag ortho>  (894) 


$$$$

     RDKit          3D

 17 19  0  0  0  0  0  0  0  0999 V2000
  -28.0430   -7.6100  -30.9100 C   0  0  0  0  0  0  0  0  0  0  0  0
  -27.6660   -6.6810  -31.8290 N   0  0  0  0  0  0  0  0  0  0  0  0
  -27.8270   -9.0990  -31.0320 N   0  0  0  0  0  0  0  0  0  0  0  0
  -28.0200   -5.4450  -31.3660 C   0  0  0  0  0  0  0  0  0  0  0  0
  -28.6130   -5.6690  -30.1430 C   0  0  0  0  0  0  0  0  0  0  0  0
  -28.6260   -6.9850  -29.8670 N   0  0  0  0  0  0  0  0  0  0  0  0
  -28.9540   -4.4280  -29.6990 N   0  0  0  0  0  0  0  0  0  0  0  0
  -28.6060   -3.5370  -30.5610 O   0  0  0  0  0  0  0  0  0  0  0  0
  -28.0270   -4.0860  -31.6060 C   0  0  0  0  0  0  0  0  0  0  0  0
  -28.2850   -9.9930  -30.1240 C   0  0  0  0  0  0  0  0  0  0  0  0
  -29.3160  -10.8510  -30.4490 C   0  0  0  0  0  0  0  0  0  0  0  0
  -29.7290  -11.8210  -29.5260 C   0  0  0  0  0  0  0  0  0  0  0  0
  -29.1230  -11.9310  -28.3010 C   0  0  0  0  0  0  0  0  0  0  0  0
  -28.0910  -11.0780  -27.9660 C   0  0  0  0  0  0  0  0  0  0  0  0
  -27.6880  -10.1160  -28.8910 C   0  0  0  0  0  0  0  0  0  0  0  0
  -29.9350  -10.7550  -31.6730 O   0  0  0  0  0  0  0  0  0  0  0  0
  -30.8560  -12.7570  -29.8860 C   0  0  0  0  0  0  0  0  0  0  0  0
  1  2  2  0
  1  3  1  0
  1  6  1  0
  2  4  1  0
  3 10  1  0
  4  9  2  0
  4  5  1  0
  5  6  1  0
  5  7  2  0
  7  8  1  0
  8  9  1  0
 10 11  2  0
 10 15  1  0
 11 16  1  0
 11 12  1  0
 12 17  1  0
 12 13  2  0
 13 14  1  0
 14 15  2  0
M  CHG  1  16  -1
M  END
>  <name>  (895) 
Car Nac Nd0 Car Car Nd0 Nac O_a Car Car Car Car Car Car Car .=O Cs3

>  <indices>  (895) 
[0, 1, 2]

>  <tasks>  (895) 
probe_placing close_aromatic_ring close_aromatic_ring close_aromatic_ring ring_built fix_Car close_aromatic_ring close_aromatic_ring build_to_Nd0 close_aromatic_ring close_aromatic_ring close_aromatic_ring close_aromatic_ring close_aromatic_ring build_orthosubstituent_to_rotated_aniline_Nd0

>  <prot_clashes>  (895) 
3

>  <NBS phar>  (895) 
0.24

>  <NBS_non-phar>  (895) 
0.606627856983858

>  <NBS>  (895) 
0.846627856983858

>  <source_stage>  (895) 
scored

>  <source_iter>  (895) 
14

>  <source_parent_mol>  (895) 
4

>  <source_scenario>  (895) 
1 2 4 0 9 8 0 0 1 0 0 0 0 4

>  <source_rank_in_scored_call>  (895) 
6

>  <source_current_task>  (895) 
no_task

>  <scenario>  (895) 
1 2 4 0 9 8 0 0 1 0 0 0 0

>  <protected_ring_attachments>  (895) 
0,5,4,6|5,4,6;1,3,4,6|3,4,6;3,1,0,2|1,0,2;4,5,0,2|5,0,2;11,10,9,2|10,9,2;13,14,9,2|14,9,2

>  <current_task>  (895) 
no_task

>  <rotatable_bond_torsions>  (895) 
1,0,2,9;0,2,9,10

>  <rotated_aniline_Nd0_dihedral>  (895) 
110.21

>  <rotated_aniline_Nd0_tolerance>  (895) 
60.0

>  <rotated_aniline_Nd0_context>  (895) 
diarylamine

>  <rotated_aniline_Nd0_substituent_idx>  (895) 
0

>  <rotated_aniline_Nd0_ring>  (895) 
10 11 12 13 14 9

>  <flag ortho>  (895) 


$$$$

     RDKit          3D

 17 19  0  0  0  0  0  0  0  0999 V2000
  -28.1470   -7.6120  -30.9530 C   0  0  0  0  0  0  0  0  0  0  0  0
  -27.6710   -6.6240  -31.7560 N   0  0  0  0  0  0  0  0  0  0  0  0
  -27.9140   -9.0910  -31.1520 N   0  0  0  0  0  0  0  0  0  0  0  0
  -28.0790   -5.4210  -31.2530 C   0  0  0  0  0  0  0  0  0  0  0  0
  -28.8070   -5.7260  -30.1230 C   0  0  0  0  0  0  0  0  0  0  0  0
  -28.8460   -7.0580  -29.9410 N   0  0  0  0  0  0  0  0  0  0  0  0
  -29.1990   -4.5170  -29.6370 N   0  0  0  0  0  0  0  0  0  0  0  0
  -28.7580   -3.5700  -30.3900 O   0  0  0  0  0  0  0  0  0  0  0  0
  -28.0620   -4.0480  -31.3970 C   0  0  0  0  0  0  0  0  0  0  0  0
  -28.4700  -10.0420  -30.3650 C   0  0  0  0  0  0  0  0  0  0  0  0
  -29.4550  -10.8710  -30.8640 C   0  0  0  0  0  0  0  0  0  0  0  0
  -29.9670  -11.9000  -30.0620 C   0  0  0  0  0  0  0  0  0  0  0  0
  -29.5040  -12.0970  -28.7870 C   0  0  0  0  0  0  0  0  0  0  0  0
  -28.5190  -11.2750  -28.2790 C   0  0  0  0  0  0  0  0  0  0  0  0
  -28.0170  -10.2530  -29.0840 C   0  0  0  0  0  0  0  0  0  0  0  0
  -29.9310  -10.6870  -32.1400 O   0  0  0  0  0  0  0  0  0  0  0  0
  -27.9940  -11.4780  -26.8790 C   0  0  0  0  0  0  0  0  0  0  0  0
  1  2  2  0
  1  3  1  0
  1  6  1  0
  2  4  1  0
  3 10  1  0
  4  9  2  0
  4  5  1  0
  5  6  1  0
  5  7  2  0
  7  8  1  0
  8  9  1  0
 10 11  2  0
 10 15  1  0
 11 16  1  0
 11 12  1  0
 12 13  2  0
 13 14  1  0
 14 15  2  0
 14 17  1  0
M  CHG  1  16  -1
M  END
>  <name>  (896) 
Car Nac Nd0 Car Car Nd0 Nac O_a Car Car Car Car Car Car Car .=O Cs3

>  <indices>  (896) 
[0, 1, 2]

>  <tasks>  (896) 
probe_placing close_aromatic_ring close_aromatic_ring close_aromatic_ring ring_built fix_Car close_aromatic_ring close_aromatic_ring build_to_Nd0 close_aromatic_ring close_aromatic_ring close_aromatic_ring close_aromatic_ring close_aromatic_ring build_orthosubstituent_to_rotated_aniline_Nd0

>  <prot_clashes>  (896) 
2

>  <NBS phar>  (896) 
0.24

>  <NBS_non-phar>  (896) 
0.5872233334709617

>  <NBS>  (896) 
0.8272233334709617

>  <source_stage>  (896) 
scored

>  <source_iter>  (896) 
14

>  <source_parent_mol>  (896) 
4

>  <source_scenario>  (896) 
1 2 4 0 9 8 0 0 1 0 0 0 0 4

>  <source_rank_in_scored_call>  (896) 
12

>  <source_current_task>  (896) 
no_task

>  <scenario>  (896) 
1 2 4 0 9 8 0 0 1 0 0 0 0

>  <protected_ring_attachments>  (896) 
0,5,4,6|5,4,6;1,3,4,6|3,4,6;3,1,0,2|1,0,2;4,5,0,2|5,0,2;11,10,9,2|10,9,2;13,14,9,2|14,9,2

>  <current_task>  (896) 
no_task

>  <rotatable_bond_torsions>  (896) 
1,0,2,9;0,2,9,10

>  <rotated_aniline_Nd0_dihedral>  (896) 
110.21

>  <rotated_aniline_Nd0_tolerance>  (896) 
60.0

>  <rotated_aniline_Nd0_context>  (896) 
diarylamine

>  <rotated_aniline_Nd0_substituent_idx>  (896) 
0

>  <rotated_aniline_Nd0_ring>  (896) 
10 11 12 13 14 9

>  <flag ortho>  (896) 


$$$$

     RDKit          3D

 17 19  0  0  0  0  0  0  0  0999 V2000
  -28.1260   -7.5820  -30.9660 C   0  0  0  0  0  0  0  0  0  0  0  0
  -27.6770   -6.5820  -31.7720 N   0  0  0  0  0  0  0  0  0  0  0  0
  -27.9000   -9.0580  -31.1930 N   0  0  0  0  0  0  0  0  0  0  0  0
  -28.0690   -5.3870  -31.2390 C   0  0  0  0  0  0  0  0  0  0  0  0
  -28.7590   -5.7080  -30.0900 C   0  0  0  0  0  0  0  0  0  0  0  0
  -28.7930   -7.0430  -29.9250 N   0  0  0  0  0  0  0  0  0  0  0  0
  -29.1360   -4.5060  -29.5740 N   0  0  0  0  0  0  0  0  0  0  0  0
  -28.7210   -3.5480  -30.3290 O   0  0  0  0  0  0  0  0  0  0  0  0
  -28.0580   -4.0120  -31.3650 C   0  0  0  0  0  0  0  0  0  0  0  0
  -28.4290  -10.0200  -30.4020 C   0  0  0  0  0  0  0  0  0  0  0  0
  -29.4290  -10.8430  -30.8800 C   0  0  0  0  0  0  0  0  0  0  0  0
  -29.9140  -11.8830  -30.0770 C   0  0  0  0  0  0  0  0  0  0  0  0
  -29.4100  -12.0980  -28.8200 C   0  0  0  0  0  0  0  0  0  0  0  0
  -28.4090  -11.2810  -28.3330 C   0  0  0  0  0  0  0  0  0  0  0  0
  -27.9340  -10.2480  -29.1390 C   0  0  0  0  0  0  0  0  0  0  0  0
  -29.9460  -10.6420  -32.1370 O   0  0  0  0  0  0  0  0  0  0  0  0
  -29.9470  -13.2240  -27.9710 C   0  0  0  0  0  0  0  0  0  0  0  0
  1  2  2  0
  1  3  1  0
  1  6  1  0
  2  4  1  0
  3 10  1  0
  4  9  2  0
  4  5  1  0
  5  6  1  0
  5  7  2  0
  7  8  1  0
  8  9  1  0
 10 11  2  0
 10 15  1  0
 11 16  1  0
 11 12  1  0
 12 13  2  0
 13 14  1  0
 13 17  1  0
 14 15  2  0
M  CHG  1  16  -1
M  END
>  <name>  (897) 
Car Nac Nd0 Car Car Nd0 Nac O_a Car Car Car Car Car Car Car .=O Cs3

>  <indices>  (897) 
[0, 1, 2]

>  <tasks>  (897) 
probe_placing close_aromatic_ring close_aromatic_ring close_aromatic_ring ring_built fix_Car close_aromatic_ring close_aromatic_ring build_to_Nd0 close_aromatic_ring close_aromatic_ring close_aromatic_ring close_aromatic_ring close_aromatic_ring build_orthosubstituent_to_rotated_aniline_Nd0

>  <prot_clashes>  (897) 
1

>  <NBS phar>  (897) 
0.24

>  <NBS_non-phar>  (897) 
0.5607814788818359

>  <NBS>  (897) 
0.8007814788818359

>  <source_stage>  (897) 
scored

>  <source_iter>  (897) 
14

>  <source_parent_mol>  (897) 
4

>  <source_scenario>  (897) 
1 2 4 0 9 8 0 0 1 0 0 0 0 4

>  <source_rank_in_scored_call>  (897) 
39

>  <source_current_task>  (897) 
no_task

>  <scenario>  (897) 
1 2 4 0 9 8 0 0 1 0 0 0 0

>  <protected_ring_attachments>  (897) 
0,5,4,6|5,4,6;1,3,4,6|3,4,6;3,1,0,2|1,0,2;4,5,0,2|5,0,2;11,10,9,2|10,9,2;13,14,9,2|14,9,2

>  <current_task>  (897) 
no_task

>  <rotatable_bond_torsions>  (897) 
1,0,2,9;0,2,9,10

>  <rotated_aniline_Nd0_dihedral>  (897) 
110.21

>  <rotated_aniline_Nd0_tolerance>  (897) 
60.0

>  <rotated_aniline_Nd0_context>  (897) 
diarylamine

>  <rotated_aniline_Nd0_substituent_idx>  (897) 
0

>  <rotated_aniline_Nd0_ring>  (897) 
10 11 12 13 14 9

>  <flag ortho>  (897) 


$$$$

     RDKit          3D

 17 19  0  0  0  0  0  0  0  0999 V2000
  -28.1130   -7.5990  -30.7810 C   0  0  0  0  0  0  0  0  0  0  0  0
  -27.5800   -6.6010  -31.5350 N   0  0  0  0  0  0  0  0  0  0  0  0
  -27.8410   -9.0730  -30.9620 N   0  0  0  0  0  0  0  0  0  0  0  0
  -28.0500   -5.4060  -31.0680 C   0  0  0  0  0  0  0  0  0  0  0  0
  -28.8750   -5.7260  -30.0110 C   0  0  0  0  0  0  0  0  0  0  0  0
  -28.9110   -7.0600  -29.8370 N   0  0  0  0  0  0  0  0  0  0  0  0
  -29.3280   -4.5250  -29.5590 N   0  0  0  0  0  0  0  0  0  0  0  0
  -28.8340   -3.5690  -30.2660 O   0  0  0  0  0  0  0  0  0  0  0  0
  -28.0410   -4.0330  -31.2060 C   0  0  0  0  0  0  0  0  0  0  0  0
  -28.4520  -10.0360  -30.2330 C   0  0  0  0  0  0  0  0  0  0  0  0
  -29.3740  -10.8770  -30.8220 C   0  0  0  0  0  0  0  0  0  0  0  0
  -29.9420  -11.9170  -30.0750 C   0  0  0  0  0  0  0  0  0  0  0  0
  -29.5960  -12.1130  -28.7630 C   0  0  0  0  0  0  0  0  0  0  0  0
  -28.6740  -11.2780  -28.1640 C   0  0  0  0  0  0  0  0  0  0  0  0
  -28.1160  -10.2450  -28.9160 C   0  0  0  0  0  0  0  0  0  0  0  0
  -29.7330  -10.6960  -32.1370 O   0  0  0  0  0  0  0  0  0  0  0  0
  -27.1110   -9.3280  -28.2640 C   0  0  0  0  0  0  0  0  0  0  0  0
  1  2  2  0
  1  3  1  0
  1  6  1  0
  2  4  1  0
  3 10  1  0
  4  9  2  0
  4  5  1  0
  5  6  1  0
  5  7  2  0
  7  8  1  0
  8  9  1  0
 10 11  2  0
 10 15  1  0
 11 16  1  0
 11 12  1  0
 12 13  2  0
 13 14  1  0
 14 15  2  0
 15 17  1  0
M  CHG  1  16  -1
M  END
>  <name>  (898) 
Car Nac Nd0 Car Car Nd0 Nac O_a Car Car Car Car Car Car Car .=O Cs3

>  <indices>  (898) 
[0, 1, 2]

>  <tasks>  (898) 
probe_placing close_aromatic_ring close_aromatic_ring close_aromatic_ring ring_built fix_Car close_aromatic_ring close_aromatic_ring build_to_Nd0 close_aromatic_ring close_aromatic_ring close_aromatic_ring close_aromatic_ring close_aromatic_ring build_orthosubstituent_to_rotated_aniline_Nd0

>  <prot_clashes>  (898) 
3

>  <NBS phar>  (898) 
0.12

>  <NBS_non-phar>  (898) 
0.6110673231237075

>  <NBS>  (898) 
0.7310673231237075

>  <source_stage>  (898) 
scored

>  <source_iter>  (898) 
14

>  <source_parent_mol>  (898) 
4

>  <source_scenario>  (898) 
1 2 4 0 9 8 0 0 1 0 0 0 0 4

>  <source_rank_in_scored_call>  (898) 
54

>  <source_current_task>  (898) 
no_task

>  <scenario>  (898) 
1 2 4 0 9 8 0 0 1 0 0 0 0

>  <protected_ring_attachments>  (898) 
0,5,4,6|5,4,6;1,3,4,6|3,4,6;3,1,0,2|1,0,2;4,5,0,2|5,0,2;11,10,9,2|10,9,2;13,14,9,2|14,9,2

>  <current_task>  (898) 
no_task

>  <rotatable_bond_torsions>  (898) 
1,0,2,9;0,2,9,10

>  <rotated_aniline_Nd0_dihedral>  (898) 
110.21

>  <rotated_aniline_Nd0_tolerance>  (898) 
60.0

>  <rotated_aniline_Nd0_context>  (898) 
diarylamine

>  <rotated_aniline_Nd0_substituent_idx>  (898) 
0

>  <rotated_aniline_Nd0_ring>  (898) 
10 11 12 13 14 9

>  <flag ortho>  (898) 


$$$$

     RDKit          3D

 12 13  0  0  0  0  0  0  0  0999 V2000
  -28.3590   -7.3530  -31.4950 C   0  0  0  0  0  0  0  0  0  0  0  0
  -27.7980   -6.3290  -32.1970 N   0  0  0  0  0  0  0  0  0  0  0  0
  -28.4100   -8.7920  -31.9450 N   0  0  0  0  0  0  0  0  0  0  0  0
  -27.9360   -5.1810  -31.4680 C   0  0  0  0  0  0  0  0  0  0  0  0
  -28.5920   -5.5560  -30.3160 C   0  0  0  0  0  0  0  0  0  0  0  0
  -28.8470   -6.8760  -30.3340 N   0  0  0  0  0  0  0  0  0  0  0  0
  -28.7180   -4.4000  -29.6080 N   0  0  0  0  0  0  0  0  0  0  0  0
  -28.1930   -3.4200  -30.2580 O   0  0  0  0  0  0  0  0  0  0  0  0
  -27.6940   -3.8250  -31.4050 C   0  0  0  0  0  0  0  0  0  0  0  0
  -28.6670   -9.7440  -31.2140 C   0  0  0  0  0  0  0  0  0  0  0  0
  -29.0750   -9.7690  -30.0080 O   0  0  0  0  0  0  0  0  0  0  0  0
  -28.5440  -11.1840  -31.7690 C   0  0  0  0  0  0  0  0  0  0  0  0
  1  2  2  0
  1  3  1  0
  1  6  1  0
  2  4  1  0
  3 10  1  0
  4  9  2  0
  4  5  1  0
  5  6  1  0
  5  7  2  0
  7  8  1  0
  8  9  1  0
 10 12  1  0
 10 11  2  0
M  END
>  <name>  (899) 
Car Nac Nd0 Car Car Nd0 Nac O_a Car Cs2 .=O Cs3

>  <indices>  (899) 
[0, 1, 2]

>  <tasks>  (899) 
probe_placing close_aromatic_ring close_aromatic_ring close_aromatic_ring ring_built fix_Car close_aromatic_ring close_aromatic_ring build_to_Nd0 build_DB_to_Cs2

>  <prot_clashes>  (899) 
1

>  <NBS phar>  (899) 
0.13999999999999999

>  <NBS_non-phar>  (899) 
0.6583040555318197

>  <NBS>  (899) 
0.7983040555318197

>  <source_stage>  (899) 
scored

>  <source_iter>  (899) 
9

>  <source_parent_mol>  (899) 
0

>  <source_scenario>  (899) 
1 2 4 0 9 8 0 1 0

>  <source_rank_in_scored_call>  (899) 
3

>  <source_current_task>  (899) 
build_SB_to_Cs2

>  <scenario>  (899) 
1 2 4 0 9 8 0 1

>  <protected_ring_attachments>  (899) 
0,5,4,6|5,4,6;1,3,4,6|3,4,6;3,1,0,2|1,0,2;4,5,0,2|5,0,2

>  <current_task>  (899) 
no_task

>  <rotatable_bond_torsions>  (899) 
1,0,2,9;0,2,9,10

$$$$

     RDKit          3D

 13 14  0  0  0  0  0  0  0  0999 V2000
  -28.3230   -7.3360  -31.4370 C   0  0  0  0  0  0  0  0  0  0  0  0
  -27.8510   -6.2830  -32.1610 N   0  0  0  0  0  0  0  0  0  0  0  0
  -28.2990   -8.7780  -31.8790 N   0  0  0  0  0  0  0  0  0  0  0  0
  -28.0370   -5.1420  -31.4330 C   0  0  0  0  0  0  0  0  0  0  0  0
  -28.6290   -5.5500  -30.2580 C   0  0  0  0  0  0  0  0  0  0  0  0
  -28.8010   -6.8830  -30.2620 N   0  0  0  0  0  0  0  0  0  0  0  0
  -28.8040   -4.4000  -29.5510 N   0  0  0  0  0  0  0  0  0  0  0  0
  -28.3630   -3.3930  -30.2220 O   0  0  0  0  0  0  0  0  0  0  0  0
  -27.8780   -3.7730  -31.3830 C   0  0  0  0  0  0  0  0  0  0  0  0
  -28.4710   -9.7400  -31.1360 C   0  0  0  0  0  0  0  0  0  0  0  0
  -28.8360   -9.7830  -29.9170 O   0  0  0  0  0  0  0  0  0  0  0  0
  -28.2760  -11.1730  -31.6890 C   0  0  0  0  0  0  0  0  0  0  0  0
  -29.1930  -12.1280  -31.0900 C   0  0  0  0  0  0  0  0  0  0  0  0
  1  2  2  0
  1  3  1  0
  1  6  1  0
  2  4  1  0
  3 10  1  0
  4  9  2  0
  4  5  1  0
  5  6  1  0
  5  7  2  0
  7  8  1  0
  8  9  1  0
 10 12  1  0
 10 11  2  0
 12 13  1  0
M  END
>  <name>  (900) 
Car Nac Nd0 Car Car Nd0 Nac O_a Car Cs2 .=O Cs3 Cs3

>  <indices>  (900) 
[0, 1, 2]

>  <tasks>  (900) 
probe_placing close_aromatic_ring close_aromatic_ring close_aromatic_ring ring_built fix_Car close_aromatic_ring close_aromatic_ring build_to_Nd0 build_DB_to_Cs2 build_SB_to_Cs2

>  <prot_clashes>  (900) 
1

>  <NBS phar>  (900) 
0.26000000000000006

>  <NBS_non-phar>  (900) 
0.57833770605234

>  <NBS>  (900) 
0.83833770605234

>  <source_stage>  (900) 
scored

>  <source_iter>  (900) 
10

>  <source_parent_mol>  (900) 
2

>  <source_scenario>  (900) 
1 2 4 0 9 8 0 1 0 2

>  <source_rank_in_scored_call>  (900) 
7

>  <source_current_task>  (900) 
no_task

>  <scenario>  (900) 
1 2 4 0 9 8 0 1 0

>  <protected_ring_attachments>  (900) 
0,5,4,6|5,4,6;1,3,4,6|3,4,6;3,1,0,2|1,0,2;4,5,0,2|5,0,2

>  <current_task>  (900) 
no_task

>  <rotatable_bond_torsions>  (900) 
1,0,2,9;0,2,9,11

$$$$

     RDKit          3D

 13 14  0  0  0  0  0  0  0  0999 V2000
  -28.4290   -7.3700  -31.5200 C   0  0  0  0  0  0  0  0  0  0  0  0
  -27.8290   -6.3550  -32.2030 N   0  0  0  0  0  0  0  0  0  0  0  0
  -28.5020   -8.8050  -31.9810 N   0  0  0  0  0  0  0  0  0  0  0  0
  -27.9580   -5.2080  -31.4700 C   0  0  0  0  0  0  0  0  0  0  0  0
  -28.6490   -5.5750  -30.3360 C   0  0  0  0  0  0  0  0  0  0  0  0
  -28.9320   -6.8890  -30.3680 N   0  0  0  0  0  0  0  0  0  0  0  0
  -28.7650   -4.4210  -29.6230 N   0  0  0  0  0  0  0  0  0  0  0  0
  -28.2040   -3.4490  -30.2550 O   0  0  0  0  0  0  0  0  0  0  0  0
  -27.6880   -3.8580  -31.3930 C   0  0  0  0  0  0  0  0  0  0  0  0
  -28.7960   -9.7550  -31.2620 C   0  0  0  0  0  0  0  0  0  0  0  0
  -29.2320   -9.7780  -30.0650 O   0  0  0  0  0  0  0  0  0  0  0  0
  -28.6930  -11.1940  -31.8230 C   0  0  0  0  0  0  0  0  0  0  0  0
  -27.8360  -12.1260  -31.0190 C   0  0  0  0  0  0  0  0  0  0  0  0
  1  2  2  0
  1  3  1  0
  1  6  1  0
  2  4  1  0
  3 10  1  0
  4  9  2  0
  4  5  1  0
  5  6  1  0
  5  7  2  0
  7  8  1  0
  8  9  1  0
 10 12  1  0
 10 11  2  0
 12 13  1  0
M  END
>  <name>  (901) 
Car Nac Nd0 Car Car Nd0 Nac O_a Car Cs2 .=O Cs3 Cs3

>  <indices>  (901) 
[0, 1, 2]

>  <tasks>  (901) 
probe_placing close_aromatic_ring close_aromatic_ring close_aromatic_ring ring_built fix_Car close_aromatic_ring close_aromatic_ring build_to_Nd0 build_DB_to_Cs2 build_SB_to_Cs2

>  <prot_clashes>  (901) 
2

>  <NBS phar>  (901) 
0.15999999999999998

>  <NBS_non-phar>  (901) 
0.6633860514714167

>  <NBS>  (901) 
0.8233860514714166

>  <source_stage>  (901) 
scored

>  <source_iter>  (901) 
10

>  <source_parent_mol>  (901) 
2

>  <source_scenario>  (901) 
1 2 4 0 9 8 0 1 0 2

>  <source_rank_in_scored_call>  (901) 
10

>  <source_current_task>  (901) 
no_task

>  <scenario>  (901) 
1 2 4 0 9 8 0 1 0

>  <protected_ring_attachments>  (901) 
0,5,4,6|5,4,6;1,3,4,6|3,4,6;3,1,0,2|1,0,2;4,5,0,2|5,0,2

>  <current_task>  (901) 
no_task

>  <rotatable_bond_torsions>  (901) 
1,0,2,9;0,2,9,11

$$$$

     RDKit          3D

 13 14  0  0  0  0  0  0  0  0999 V2000
  -28.3280   -7.3300  -31.4370 C   0  0  0  0  0  0  0  0  0  0  0  0
  -27.8540   -6.2760  -32.1590 N   0  0  0  0  0  0  0  0  0  0  0  0
  -28.2950   -8.7720  -31.8780 N   0  0  0  0  0  0  0  0  0  0  0  0
  -28.0500   -5.1340  -31.4330 C   0  0  0  0  0  0  0  0  0  0  0  0
  -28.6510   -5.5440  -30.2630 C   0  0  0  0  0  0  0  0  0  0  0  0
  -28.8180   -6.8780  -30.2670 N   0  0  0  0  0  0  0  0  0  0  0  0
  -28.8360   -4.3930  -29.5580 N   0  0  0  0  0  0  0  0  0  0  0  0
  -28.3930   -3.3850  -30.2270 O   0  0  0  0  0  0  0  0  0  0  0  0
  -27.8960   -3.7650  -31.3830 C   0  0  0  0  0  0  0  0  0  0  0  0
  -28.4700   -9.7340  -31.1360 C   0  0  0  0  0  0  0  0  0  0  0  0
  -28.8460   -9.7770  -29.9200 O   0  0  0  0  0  0  0  0  0  0  0  0
  -28.2660  -11.1660  -31.6850 C   0  0  0  0  0  0  0  0  0  0  0  0
  -29.1900  -12.1470  -31.0510 C   0  0  0  0  0  0  0  0  0  0  0  0
  1  2  2  0
  1  3  1  0
  1  6  1  0
  2  4  1  0
  3 10  1  0
  4  9  2  0
  4  5  1  0
  5  6  1  0
  5  7  2  0
  7  8  1  0
  8  9  1  0
 10 12  1  0
 10 11  2  0
 12 13  1  0
M  END
>  <name>  (902) 
Car Nac Nd0 Car Car Nd0 Nac O_a Car Cs2 .=O Cs3 Cs3

>  <indices>  (902) 
[0, 1, 2]

>  <tasks>  (902) 
probe_placing close_aromatic_ring close_aromatic_ring close_aromatic_ring ring_built fix_Car close_aromatic_ring close_aromatic_ring build_to_Nd0 build_DB_to_Cs2 build_SB_to_Cs2

>  <prot_clashes>  (902) 
2

>  <NBS phar>  (902) 
0.24000000000000005

>  <NBS_non-phar>  (902) 
0.5751991271972656

>  <NBS>  (902) 
0.8151991271972656

>  <source_stage>  (902) 
scored

>  <source_iter>  (902) 
10

>  <source_parent_mol>  (902) 
2

>  <source_scenario>  (902) 
1 2 4 0 9 8 0 1 0 2

>  <source_rank_in_scored_call>  (902) 
11

>  <source_current_task>  (902) 
no_task

>  <scenario>  (902) 
1 2 4 0 9 8 0 1 0

>  <protected_ring_attachments>  (902) 
0,5,4,6|5,4,6;1,3,4,6|3,4,6;3,1,0,2|1,0,2;4,5,0,2|5,0,2

>  <current_task>  (902) 
no_task

>  <rotatable_bond_torsions>  (902) 
1,0,2,9;0,2,9,11

$$$$

     RDKit          3D

 13 14  0  0  0  0  0  0  0  0999 V2000
  -28.2640   -7.3300  -31.3520 C   0  0  0  0  0  0  0  0  0  0  0  0
  -27.8060   -6.2800  -32.0890 N   0  0  0  0  0  0  0  0  0  0  0  0
  -28.1710   -8.7820  -31.7520 N   0  0  0  0  0  0  0  0  0  0  0  0
  -28.0590   -5.1270  -31.4000 C   0  0  0  0  0  0  0  0  0  0  0  0
  -28.6780   -5.5260  -30.2350 C   0  0  0  0  0  0  0  0  0  0  0  0
  -28.8010   -6.8640  -30.2080 N   0  0  0  0  0  0  0  0  0  0  0  0
  -28.9200   -4.3640  -29.5670 N   0  0  0  0  0  0  0  0  0  0  0  0
  -28.4930   -3.3600  -30.2510 O   0  0  0  0  0  0  0  0  0  0  0  0
  -27.9530   -3.7530  -31.3840 C   0  0  0  0  0  0  0  0  0  0  0  0
  -28.3350   -9.7290  -30.9880 C   0  0  0  0  0  0  0  0  0  0  0  0
  -28.7420   -9.7530  -29.7820 O   0  0  0  0  0  0  0  0  0  0  0  0
  -28.0680  -11.1680  -31.4930 C   0  0  0  0  0  0  0  0  0  0  0  0
  -29.2900  -12.0360  -31.5440 C   0  0  0  0  0  0  0  0  0  0  0  0
  1  2  2  0
  1  3  1  0
  1  6  1  0
  2  4  1  0
  3 10  1  0
  4  9  2  0
  4  5  1  0
  5  6  1  0
  5  7  2  0
  7  8  1  0
  8  9  1  0
 10 12  1  0
 10 11  2  0
 12 13  1  0
M  END
>  <name>  (903) 
Car Nac Nd0 Car Car Nd0 Nac O_a Car Cs2 .=O Cs3 Cs3

>  <indices>  (903) 
[0, 1, 2]

>  <tasks>  (903) 
probe_placing close_aromatic_ring close_aromatic_ring close_aromatic_ring ring_built fix_Car close_aromatic_ring close_aromatic_ring build_to_Nd0 build_DB_to_Cs2 build_SB_to_Cs2

>  <prot_clashes>  (903) 
0

>  <NBS phar>  (903) 
0.26000000000000006

>  <NBS_non-phar>  (903) 
0.5522343195401705

>  <NBS>  (903) 
0.8122343195401707

>  <source_stage>  (903) 
scored

>  <source_iter>  (903) 
10

>  <source_parent_mol>  (903) 
2

>  <source_scenario>  (903) 
1 2 4 0 9 8 0 1 0 2

>  <source_rank_in_scored_call>  (903) 
12

>  <source_current_task>  (903) 
no_task

>  <scenario>  (903) 
1 2 4 0 9 8 0 1 0

>  <protected_ring_attachments>  (903) 
0,5,4,6|5,4,6;1,3,4,6|3,4,6;3,1,0,2|1,0,2;4,5,0,2|5,0,2

>  <current_task>  (903) 
no_task

>  <rotatable_bond_torsions>  (903) 
1,0,2,9;0,2,9,11

$$$$

     RDKit          3D

 13 14  0  0  0  0  0  0  0  0999 V2000
  -28.2050   -7.3530  -31.2940 C   0  0  0  0  0  0  0  0  0  0  0  0
  -27.7880   -6.3030  -32.0560 N   0  0  0  0  0  0  0  0  0  0  0  0
  -28.0780   -8.8080  -31.6720 N   0  0  0  0  0  0  0  0  0  0  0  0
  -28.0620   -5.1460  -31.3810 C   0  0  0  0  0  0  0  0  0  0  0  0
  -28.6500   -5.5430  -30.2000 C   0  0  0  0  0  0  0  0  0  0  0  0
  -28.7350   -6.8830  -30.1480 N   0  0  0  0  0  0  0  0  0  0  0  0
  -28.9130   -4.3770  -29.5460 N   0  0  0  0  0  0  0  0  0  0  0  0
  -28.5250   -3.3730  -30.2530 O   0  0  0  0  0  0  0  0  0  0  0  0
  -27.9940   -3.7690  -31.3890 C   0  0  0  0  0  0  0  0  0  0  0  0
  -28.2030   -9.7470  -30.8910 C   0  0  0  0  0  0  0  0  0  0  0  0
  -28.5890   -9.7620  -29.6780 O   0  0  0  0  0  0  0  0  0  0  0  0
  -27.9050  -11.1860  -31.3780 C   0  0  0  0  0  0  0  0  0  0  0  0
  -29.1930  -11.8400  -31.8870 C   0  0  0  0  0  0  0  0  0  0  0  0
  1  2  2  0
  1  3  1  0
  1  6  1  0
  2  4  1  0
  3 10  1  0
  4  9  2  0
  4  5  1  0
  5  6  1  0
  5  7  2  0
  7  8  1  0
  8  9  1  0
 10 12  1  0
 10 11  2  0
 12 13  1  0
M  END
>  <name>  (904) 
Car Nac Nd0 Car Car Nd0 Nac O_a Car Cs2 .=O Cs3 Cs3

>  <indices>  (904) 
[0, 1, 2]

>  <tasks>  (904) 
probe_placing close_aromatic_ring close_aromatic_ring close_aromatic_ring ring_built fix_Car close_aromatic_ring close_aromatic_ring build_to_Nd0 build_DB_to_Cs2 build_SB_to_Cs2

>  <prot_clashes>  (904) 
0

>  <NBS phar>  (904) 
0.26000000000000006

>  <NBS_non-phar>  (904) 
0.5368138093214768

>  <NBS>  (904) 
0.7968138093214769

>  <source_stage>  (904) 
scored

>  <source_iter>  (904) 
10

>  <source_parent_mol>  (904) 
2

>  <source_scenario>  (904) 
1 2 4 0 9 8 0 1 0 2

>  <source_rank_in_scored_call>  (904) 
15

>  <source_current_task>  (904) 
no_task

>  <scenario>  (904) 
1 2 4 0 9 8 0 1 0

>  <protected_ring_attachments>  (904) 
0,5,4,6|5,4,6;1,3,4,6|3,4,6;3,1,0,2|1,0,2;4,5,0,2|5,0,2

>  <current_task>  (904) 
no_task

>  <rotatable_bond_torsions>  (904) 
1,0,2,9;0,2,9,11

$$$$

     RDKit          3D

 13 14  0  0  0  0  0  0  0  0999 V2000
  -28.3840   -7.3610  -31.5000 C   0  0  0  0  0  0  0  0  0  0  0  0
  -27.7990   -6.3410  -32.1890 N   0  0  0  0  0  0  0  0  0  0  0  0
  -28.4390   -8.7990  -31.9540 N   0  0  0  0  0  0  0  0  0  0  0  0
  -27.9420   -5.1930  -31.4600 C   0  0  0  0  0  0  0  0  0  0  0  0
  -28.6240   -5.5640  -30.3230 C   0  0  0  0  0  0  0  0  0  0  0  0
  -28.8910   -6.8820  -30.3480 N   0  0  0  0  0  0  0  0  0  0  0  0
  -28.7540   -4.4080  -29.6150 N   0  0  0  0  0  0  0  0  0  0  0  0
  -28.2070   -3.4320  -30.2520 O   0  0  0  0  0  0  0  0  0  0  0  0
  -27.6880   -3.8400  -31.3900 C   0  0  0  0  0  0  0  0  0  0  0  0
  -28.7190   -9.7500  -31.2300 C   0  0  0  0  0  0  0  0  0  0  0  0
  -29.1520   -9.7730  -30.0330 O   0  0  0  0  0  0  0  0  0  0  0  0
  -28.5980  -11.1900  -31.7850 C   0  0  0  0  0  0  0  0  0  0  0  0
  -28.0640  -12.1730  -30.7070 C   0  0  0  0  0  0  0  0  0  0  0  0
  1  2  2  0
  1  3  1  0
  1  6  1  0
  2  4  1  0
  3 10  1  0
  4  9  2  0
  4  5  1  0
  5  6  1  0
  5  7  2  0
  7  8  1  0
  8  9  1  0
 10 12  1  0
 10 11  2  0
 12 13  1  0
M  END
>  <name>  (905) 
Car Nac Nd0 Car Car Nd0 Nac O_a Car Cs2 .=O Cs3 Cs3

>  <indices>  (905) 
[0, 1, 2]

>  <tasks>  (905) 
probe_placing close_aromatic_ring close_aromatic_ring close_aromatic_ring ring_built fix_Car close_aromatic_ring close_aromatic_ring build_to_Nd0 build_DB_to_Cs2 build_SB_to_Cs2

>  <prot_clashes>  (905) 
1

>  <NBS phar>  (905) 
0.15999999999999998

>  <NBS_non-phar>  (905) 
0.6015122120197003

>  <NBS>  (905) 
0.7615122120197002

>  <source_stage>  (905) 
scored

>  <source_iter>  (905) 
10

>  <source_parent_mol>  (905) 
2

>  <source_scenario>  (905) 
1 2 4 0 9 8 0 1 0 2

>  <source_rank_in_scored_call>  (905) 
20

>  <source_current_task>  (905) 
no_task

>  <scenario>  (905) 
1 2 4 0 9 8 0 1 0

>  <protected_ring_attachments>  (905) 
0,5,4,6|5,4,6;1,3,4,6|3,4,6;3,1,0,2|1,0,2;4,5,0,2|5,0,2

>  <current_task>  (905) 
no_task

>  <rotatable_bond_torsions>  (905) 
1,0,2,9;0,2,9,11

$$$$

     RDKit          3D

 13 14  0  0  0  0  0  0  0  0999 V2000
  -28.3660   -7.3540  -31.4910 C   0  0  0  0  0  0  0  0  0  0  0  0
  -27.8050   -6.3290  -32.1910 N   0  0  0  0  0  0  0  0  0  0  0  0
  -28.4250   -8.7910  -31.9470 N   0  0  0  0  0  0  0  0  0  0  0  0
  -27.9360   -5.1840  -31.4570 C   0  0  0  0  0  0  0  0  0  0  0  0
  -28.5880   -5.5620  -30.3030 C   0  0  0  0  0  0  0  0  0  0  0  0
  -28.8480   -6.8810  -30.3260 N   0  0  0  0  0  0  0  0  0  0  0  0
  -28.7070   -4.4080  -29.5900 N   0  0  0  0  0  0  0  0  0  0  0  0
  -28.1810   -3.4270  -30.2380 O   0  0  0  0  0  0  0  0  0  0  0  0
  -27.6890   -3.8290  -31.3890 C   0  0  0  0  0  0  0  0  0  0  0  0
  -28.6820   -9.7450  -31.2190 C   0  0  0  0  0  0  0  0  0  0  0  0
  -29.0850   -9.7740  -30.0110 O   0  0  0  0  0  0  0  0  0  0  0  0
  -28.5660  -11.1830  -31.7800 C   0  0  0  0  0  0  0  0  0  0  0  0
  -28.2170  -12.2820  -30.8170 C   0  0  0  0  0  0  0  0  0  0  0  0
  1  2  2  0
  1  3  1  0
  1  6  1  0
  2  4  1  0
  3 10  1  0
  4  9  2  0
  4  5  1  0
  5  6  1  0
  5  7  2  0
  7  8  1  0
  8  9  1  0
 10 12  1  0
 10 11  2  0
 12 13  1  0
M  END
>  <name>  (906) 
Car Nac Nd0 Car Car Nd0 Nac O_a Car Cs2 .=O Cs3 Cs3

>  <indices>  (906) 
[0, 1, 2]

>  <tasks>  (906) 
probe_placing close_aromatic_ring close_aromatic_ring close_aromatic_ring ring_built fix_Car close_aromatic_ring close_aromatic_ring build_to_Nd0 build_DB_to_Cs2 build_SB_to_Cs2

>  <prot_clashes>  (906) 
1

>  <NBS phar>  (906) 
0.13999999999999999

>  <NBS_non-phar>  (906) 
0.6181526917677659

>  <NBS>  (906) 
0.7581526917677659

>  <source_stage>  (906) 
scored

>  <source_iter>  (906) 
10

>  <source_parent_mol>  (906) 
2

>  <source_scenario>  (906) 
1 2 4 0 9 8 0 1 0 2

>  <source_rank_in_scored_call>  (906) 
21

>  <source_current_task>  (906) 
no_task

>  <scenario>  (906) 
1 2 4 0 9 8 0 1 0

>  <protected_ring_attachments>  (906) 
0,5,4,6|5,4,6;1,3,4,6|3,4,6;3,1,0,2|1,0,2;4,5,0,2|5,0,2

>  <current_task>  (906) 
no_task

>  <rotatable_bond_torsions>  (906) 
1,0,2,9;0,2,9,11

$$$$

     RDKit          3D

 13 14  0  0  0  0  0  0  0  0999 V2000
  -28.1990   -7.5980  -31.2930 C   0  0  0  0  0  0  0  0  0  0  0  0
  -27.5270   -6.7660  -32.1380 N   0  0  0  0  0  0  0  0  0  0  0  0
  -28.2400   -9.1020  -31.4020 N   0  0  0  0  0  0  0  0  0  0  0  0
  -27.7160   -5.4800  -31.7150 C   0  0  0  0  0  0  0  0  0  0  0  0
  -28.5150   -5.5750  -30.5970 C   0  0  0  0  0  0  0  0  0  0  0  0
  -28.8060   -6.8630  -30.3410 N   0  0  0  0  0  0  0  0  0  0  0  0
  -28.6880   -4.2860  -30.1950 N   0  0  0  0  0  0  0  0  0  0  0  0
  -28.0600   -3.4850  -30.9840 O   0  0  0  0  0  0  0  0  0  0  0  0
  -27.4410   -4.1470  -31.9370 C   0  0  0  0  0  0  0  0  0  0  0  0
  -28.6110   -9.8570  -30.5090 C   0  0  0  0  0  0  0  0  0  0  0  0
  -29.1590   -9.6010  -29.3890 O   0  0  0  0  0  0  0  0  0  0  0  0
  -28.4670  -11.3870  -30.6980 C   0  0  0  0  0  0  0  0  0  0  0  0
  -28.3410  -11.6840  -32.1430 C   0  0  0  0  0  0  0  0  0  0  0  0
  1  2  2  0
  1  3  1  0
  1  6  1  0
  2  4  1  0
  3 10  1  0
  4  9  2  0
  4  5  1  0
  5  6  1  0
  5  7  2  0
  7  8  1  0
  8  9  1  0
 10 12  1  0
 10 11  2  0
 12 13  1  0
M  END
>  <name>  (907) 
Car Nac Nd0 Car Car Nd0 Nac O_a Car Cs2 .=O Cs3 Cs3

>  <indices>  (907) 
[0, 1, 2]

>  <tasks>  (907) 
probe_placing close_aromatic_ring close_aromatic_ring close_aromatic_ring ring_built fix_Car close_aromatic_ring close_aromatic_ring build_to_Nd0 build_DB_to_Cs2 build_SB_to_Cs2

>  <prot_clashes>  (907) 
1

>  <NBS phar>  (907) 
0.2

>  <NBS_non-phar>  (907) 
0.546993035536546

>  <NBS>  (907) 
0.746993035536546

>  <source_stage>  (907) 
scored

>  <source_iter>  (907) 
10

>  <source_parent_mol>  (907) 
2

>  <source_scenario>  (907) 
1 2 4 0 9 8 0 1 0 2

>  <source_rank_in_scored_call>  (907) 
26

>  <source_current_task>  (907) 
no_task

>  <scenario>  (907) 
1 2 4 0 9 8 0 1 0

>  <protected_ring_attachments>  (907) 
0,5,4,6|5,4,6;1,3,4,6|3,4,6;3,1,0,2|1,0,2;4,5,0,2|5,0,2

>  <current_task>  (907) 
no_task

>  <rotatable_bond_torsions>  (907) 
1,0,2,9;0,2,9,11

$$$$

     RDKit          3D

 13 14  0  0  0  0  0  0  0  0999 V2000
  -28.4660   -7.3560  -31.6640 C   0  0  0  0  0  0  0  0  0  0  0  0
  -27.8440   -6.4380  -32.4550 N   0  0  0  0  0  0  0  0  0  0  0  0
  -28.7010   -8.8010  -32.0260 N   0  0  0  0  0  0  0  0  0  0  0  0
  -27.8110   -5.2460  -31.7870 C   0  0  0  0  0  0  0  0  0  0  0  0
  -28.4290   -5.4860  -30.5790 C   0  0  0  0  0  0  0  0  0  0  0  0
  -28.8250   -6.7690  -30.5060 N   0  0  0  0  0  0  0  0  0  0  0  0
  -28.3840   -4.2890  -29.9330 N   0  0  0  0  0  0  0  0  0  0  0  0
  -27.7990   -3.4080  -30.6680 O   0  0  0  0  0  0  0  0  0  0  0  0
  -27.4210   -3.9240  -31.8170 C   0  0  0  0  0  0  0  0  0  0  0  0
  -29.0110   -9.6800  -31.2280 C   0  0  0  0  0  0  0  0  0  0  0  0
  -29.3420   -9.5980  -30.0010 O   0  0  0  0  0  0  0  0  0  0  0  0
  -29.0800  -11.1520  -31.7050 C   0  0  0  0  0  0  0  0  0  0  0  0
  -27.7040  -11.8970  -31.7460 C   0  0  0  0  0  0  0  0  0  0  0  0
  1  2  2  0
  1  3  1  0
  1  6  1  0
  2  4  1  0
  3 10  1  0
  4  9  2  0
  4  5  1  0
  5  6  1  0
  5  7  2  0
  7  8  1  0
  8  9  1  0
 10 12  1  0
 10 11  2  0
 12 13  1  0
M  END
>  <name>  (908) 
Car Nac Nd0 Car Car Nd0 Nac O_a Car Cs2 .=O Cs3 Cs3

>  <indices>  (908) 
[0, 1, 2]

>  <tasks>  (908) 
probe_placing close_aromatic_ring close_aromatic_ring close_aromatic_ring ring_built fix_Car close_aromatic_ring close_aromatic_ring build_to_Nd0 build_DB_to_Cs2 build_SB_to_Cs2

>  <prot_clashes>  (908) 
1

>  <NBS phar>  (908) 
0.12

>  <NBS_non-phar>  (908) 
0.6031007399925818

>  <NBS>  (908) 
0.7231007399925818

>  <source_stage>  (908) 
scored

>  <source_iter>  (908) 
10

>  <source_parent_mol>  (908) 
2

>  <source_scenario>  (908) 
1 2 4 0 9 8 0 1 0 2

>  <source_rank_in_scored_call>  (908) 
28

>  <source_current_task>  (908) 
no_task

>  <scenario>  (908) 
1 2 4 0 9 8 0 1 0

>  <protected_ring_attachments>  (908) 
0,5,4,6|5,4,6;1,3,4,6|3,4,6;3,1,0,2|1,0,2;4,5,0,2|5,0,2

>  <current_task>  (908) 
no_task

>  <rotatable_bond_torsions>  (908) 
1,0,2,9;0,2,9,11

$$$$

     RDKit          3D

 13 14  0  0  0  0  0  0  0  0999 V2000
  -28.4550   -7.3560  -31.5050 C   0  0  0  0  0  0  0  0  0  0  0  0
  -27.7830   -6.4850  -32.3080 N   0  0  0  0  0  0  0  0  0  0  0  0
  -28.6890   -8.8160  -31.8060 N   0  0  0  0  0  0  0  0  0  0  0  0
  -27.7680   -5.2610  -31.6990 C   0  0  0  0  0  0  0  0  0  0  0  0
  -28.4490   -5.4350  -30.5140 C   0  0  0  0  0  0  0  0  0  0  0  0
  -28.8640   -6.7080  -30.3970 N   0  0  0  0  0  0  0  0  0  0  0  0
  -28.4220   -4.2060  -29.9270 N   0  0  0  0  0  0  0  0  0  0  0  0
  -27.7900   -3.3690  -30.6740 O   0  0  0  0  0  0  0  0  0  0  0  0
  -27.3610   -3.9460  -31.7750 C   0  0  0  0  0  0  0  0  0  0  0  0
  -29.0500   -9.6500  -30.9810 C   0  0  0  0  0  0  0  0  0  0  0  0
  -29.4410   -9.5030  -29.7780 O   0  0  0  0  0  0  0  0  0  0  0  0
  -29.1130  -11.1430  -31.3870 C   0  0  0  0  0  0  0  0  0  0  0  0
  -27.6960  -11.6950  -31.7630 C   0  0  0  0  0  0  0  0  0  0  0  0
  1  2  2  0
  1  3  1  0
  1  6  1  0
  2  4  1  0
  3 10  1  0
  4  9  2  0
  4  5  1  0
  5  6  1  0
  5  7  2  0
  7  8  1  0
  8  9  1  0
 10 12  1  0
 10 11  2  0
 12 13  1  0
M  END
>  <name>  (909) 
Car Nac Nd0 Car Car Nd0 Nac O_a Car Cs2 .=O Cs3 Cs3

>  <indices>  (909) 
[0, 1, 2]

>  <tasks>  (909) 
probe_placing close_aromatic_ring close_aromatic_ring close_aromatic_ring ring_built fix_Car close_aromatic_ring close_aromatic_ring build_to_Nd0 build_DB_to_Cs2 build_SB_to_Cs2

>  <prot_clashes>  (909) 
2

>  <NBS phar>  (909) 
0.12

>  <NBS_non-phar>  (909) 
0.5534729223984939

>  <NBS>  (909) 
0.6734729223984939

>  <source_stage>  (909) 
scored

>  <source_iter>  (909) 
10

>  <source_parent_mol>  (909) 
2

>  <source_scenario>  (909) 
1 2 4 0 9 8 0 1 0 2

>  <source_rank_in_scored_call>  (909) 
30

>  <source_current_task>  (909) 
no_task

>  <scenario>  (909) 
1 2 4 0 9 8 0 1 0

>  <protected_ring_attachments>  (909) 
0,5,4,6|5,4,6;1,3,4,6|3,4,6;3,1,0,2|1,0,2;4,5,0,2|5,0,2

>  <current_task>  (909) 
no_task

>  <rotatable_bond_torsions>  (909) 
1,0,2,9;0,2,9,11

$$$$

     RDKit          3D

 13 14  0  0  0  0  0  0  0  0999 V2000
  -28.5130   -7.3840  -31.6290 C   0  0  0  0  0  0  0  0  0  0  0  0
  -27.8210   -6.5950  -32.4980 N   0  0  0  0  0  0  0  0  0  0  0  0
  -28.8040   -8.8510  -31.8290 N   0  0  0  0  0  0  0  0  0  0  0  0
  -27.7540   -5.3340  -31.9730 C   0  0  0  0  0  0  0  0  0  0  0  0
  -28.4230   -5.4020  -30.7710 C   0  0  0  0  0  0  0  0  0  0  0  0
  -28.8830   -6.6490  -30.5630 N   0  0  0  0  0  0  0  0  0  0  0  0
  -28.3430   -4.1400  -30.2680 N   0  0  0  0  0  0  0  0  0  0  0  0
  -27.6920   -3.3780  -31.0770 O   0  0  0  0  0  0  0  0  0  0  0  0
  -27.3000   -4.0430  -32.1420 C   0  0  0  0  0  0  0  0  0  0  0  0
  -29.1830   -9.6150  -30.9460 C   0  0  0  0  0  0  0  0  0  0  0  0
  -29.5510   -9.3730  -29.7510 O   0  0  0  0  0  0  0  0  0  0  0  0
  -29.3060  -11.1280  -31.2490 C   0  0  0  0  0  0  0  0  0  0  0  0
  -27.9220  -11.6640  -31.6890 C   0  0  0  0  0  0  0  0  0  0  0  0
  1  2  2  0
  1  3  1  0
  1  6  1  0
  2  4  1  0
  3 10  1  0
  4  9  2  0
  4  5  1  0
  5  6  1  0
  5  7  2  0
  7  8  1  0
  8  9  1  0
 10 12  1  0
 10 11  2  0
 12 13  1  0
M  END
>  <name>  (910) 
Car Nac Nd0 Car Car Nd0 Nac O_a Car Cs2 .=O Cs3 Cs3

>  <indices>  (910) 
[0, 1, 2]

>  <tasks>  (910) 
probe_placing close_aromatic_ring close_aromatic_ring close_aromatic_ring ring_built fix_Car close_aromatic_ring close_aromatic_ring build_to_Nd0 build_DB_to_Cs2 build_SB_to_Cs2

>  <prot_clashes>  (910) 
2

>  <NBS phar>  (910) 
0.12

>  <NBS_non-phar>  (910) 
0.48761745599599987

>  <NBS>  (910) 
0.6076174559959999

>  <source_stage>  (910) 
scored

>  <source_iter>  (910) 
10

>  <source_parent_mol>  (910) 
2

>  <source_scenario>  (910) 
1 2 4 0 9 8 0 1 0 2

>  <source_rank_in_scored_call>  (910) 
39

>  <source_current_task>  (910) 
no_task

>  <scenario>  (910) 
1 2 4 0 9 8 0 1 0

>  <protected_ring_attachments>  (910) 
0,5,4,6|5,4,6;1,3,4,6|3,4,6;3,1,0,2|1,0,2;4,5,0,2|5,0,2

>  <current_task>  (910) 
no_task

>  <rotatable_bond_torsions>  (910) 
1,0,2,9;0,2,9,11

$$$$

     RDKit          3D

 17 19  0  0  0  0  0  0  0  0999 V2000
  -28.2540   -7.4950  -31.3440 C   0  0  0  0  0  0  0  0  0  0  0  0
  -27.5760   -6.6820  -32.2010 N   0  0  0  0  0  0  0  0  0  0  0  0
  -28.3520   -8.9950  -31.4610 N   0  0  0  0  0  0  0  0  0  0  0  0
  -27.7100   -5.3930  -31.7670 C   0  0  0  0  0  0  0  0  0  0  0  0
  -28.4830   -5.4660  -30.6290 C   0  0  0  0  0  0  0  0  0  0  0  0
  -28.8120   -6.7460  -30.3730 N   0  0  0  0  0  0  0  0  0  0  0  0
  -28.6000   -4.1760  -30.2160 N   0  0  0  0  0  0  0  0  0  0  0  0
  -27.9640   -3.3910  -31.0160 O   0  0  0  0  0  0  0  0  0  0  0  0
  -27.3930   -4.0690  -31.9890 C   0  0  0  0  0  0  0  0  0  0  0  0
  -28.7250   -9.7440  -30.5610 C   0  0  0  0  0  0  0  0  0  0  0  0
  -29.2380   -9.4740  -29.4260 O   0  0  0  0  0  0  0  0  0  0  0  0
  -28.5760  -11.2660  -30.7780 C   0  0  0  0  0  0  0  0  0  0  0  0
  -28.5470  -11.8330  -32.0420 C   0  0  0  0  0  0  0  0  0  0  0  0
  -28.4920  -12.1180  -29.6720 C   0  0  0  0  0  0  0  0  0  0  0  0
  -28.3840  -13.4860  -29.8410 C   0  0  0  0  0  0  0  0  0  0  0  0
  -28.3610  -13.9690  -31.1010 N   0  0  0  0  0  0  0  0  0  0  0  0
  -28.4380  -13.2000  -32.2090 C   0  0  0  0  0  0  0  0  0  0  0  0
  1  2  2  0
  1  3  1  0
  1  6  1  0
  2  4  1  0
  3 10  1  0
  4  9  2  0
  4  5  1  0
  5  6  1  0
  5  7  2  0
  7  8  1  0
  8  9  1  0
 10 12  1  0
 10 11  2  0
 12 13  2  0
 12 14  1  0
 13 17  1  0
 14 15  2  0
 15 16  1  0
 16 17  2  0
M  END
>  <name>  (911) 
Car Nac Nd0 Car Car Nd0 Nac O_a Car Cs2 .=O Car Car Car Car Nac Car

>  <indices>  (911) 
[0, 1, 2]

>  <tasks>  (911) 
probe_placing close_aromatic_ring close_aromatic_ring close_aromatic_ring ring_built fix_Car close_aromatic_ring close_aromatic_ring build_to_Nd0 build_DB_to_Cs2 build_SB_to_Cs2 close_aromatic_ring close_aromatic_ring close_aromatic_ring close_aromatic_ring

>  <prot_clashes>  (911) 
1

>  <NBS phar>  (911) 
0.2

>  <NBS_non-phar>  (911) 
0.5064273722031537

>  <NBS>  (911) 
0.7064273722031538

>  <source_stage>  (911) 
scored

>  <source_iter>  (911) 
14

>  <source_parent_mol>  (911) 
1

>  <source_scenario>  (911) 
1 2 4 0 9 8 0 1 0 3 8 0 0 1

>  <source_rank_in_scored_call>  (911) 
0

>  <source_current_task>  (911) 
close_aromatic_ring

>  <scenario>  (911) 
1 2 4 0 9 8 0 1 0 3 8 0 0

>  <protected_ring_attachments>  (911) 
0,5,4,6|5,4,6;1,3,4,6|3,4,6;3,1,0,2|1,0,2;4,5,0,2|5,0,2

>  <current_task>  (911) 
no_task

>  <rotatable_bond_torsions>  (911) 
1,0,2,9;0,2,9,11;2,9,11,13;9,11,13,14

$$$$

     RDKit          3D

 17 19  0  0  0  0  0  0  0  0999 V2000
  -28.3580   -7.4770  -31.3760 C   0  0  0  0  0  0  0  0  0  0  0  0
  -27.6880   -6.6900  -32.2650 N   0  0  0  0  0  0  0  0  0  0  0  0
  -28.5440   -8.9680  -31.5020 N   0  0  0  0  0  0  0  0  0  0  0  0
  -27.7260   -5.4020  -31.8120 C   0  0  0  0  0  0  0  0  0  0  0  0
  -28.4330   -5.4490  -30.6310 C   0  0  0  0  0  0  0  0  0  0  0  0
  -28.8160   -6.7120  -30.3670 N   0  0  0  0  0  0  0  0  0  0  0  0
  -28.4550   -4.1590  -30.2000 N   0  0  0  0  0  0  0  0  0  0  0  0
  -27.8260   -3.3990  -31.0280 O   0  0  0  0  0  0  0  0  0  0  0  0
  -27.3520   -4.0950  -32.0400 C   0  0  0  0  0  0  0  0  0  0  0  0
  -28.9030   -9.7080  -30.5870 C   0  0  0  0  0  0  0  0  0  0  0  0
  -29.3320   -9.4250  -29.4220 O   0  0  0  0  0  0  0  0  0  0  0  0
  -28.8850  -11.1170  -30.8280 C   0  0  0  0  0  0  0  0  0  0  0  0
  -28.9030  -11.5520  -32.1380 C   0  0  0  0  0  0  0  0  0  0  0  0
  -28.7700  -12.0820  -29.8210 C   0  0  0  0  0  0  0  0  0  0  0  0
  -28.6800  -13.4110  -30.1980 C   0  0  0  0  0  0  0  0  0  0  0  0
  -28.8140  -12.8580  -32.4770 N   0  0  0  0  0  0  0  0  0  0  0  0
  -28.7010  -13.8100  -31.5150 C   0  0  0  0  0  0  0  0  0  0  0  0
  1  2  2  0
  1  3  1  0
  1  6  1  0
  2  4  1  0
  3 10  1  0
  4  9  2  0
  4  5  1  0
  5  6  1  0
  5  7  2  0
  7  8  1  0
  8  9  1  0
 10 12  1  0
 10 11  2  0
 12 13  2  0
 12 14  1  0
 13 16  1  0
 14 15  2  0
 15 17  1  0
 16 17  2  0
M  END
>  <name>  (912) 
Car Nac Nd0 Car Car Nd0 Nac O_a Car Cs2 .=O Car Car Car Car Nac Car

>  <indices>  (912) 
[0, 1, 2]

>  <tasks>  (912) 
probe_placing close_aromatic_ring close_aromatic_ring close_aromatic_ring ring_built fix_Car close_aromatic_ring close_aromatic_ring build_to_Nd0 build_DB_to_Cs2 build_SB_to_Cs2 close_aromatic_ring close_aromatic_ring close_aromatic_ring close_aromatic_ring

>  <prot_clashes>  (912) 
1

>  <NBS phar>  (912) 
0.2

>  <NBS_non-phar>  (912) 
0.44483527015237245

>  <NBS>  (912) 
0.6448352701523725

>  <source_stage>  (912) 
scored

>  <source_iter>  (912) 
14

>  <source_parent_mol>  (912) 
2

>  <source_scenario>  (912) 
1 2 4 0 9 8 0 1 0 3 8 0 0 2

>  <source_rank_in_scored_call>  (912) 
3

>  <source_current_task>  (912) 
close_aromatic_ring

>  <scenario>  (912) 
1 2 4 0 9 8 0 1 0 3 8 0 0

>  <protected_ring_attachments>  (912) 
0,5,4,6|5,4,6;1,3,4,6|3,4,6;3,1,0,2|1,0,2;4,5,0,2|5,0,2

>  <current_task>  (912) 
no_task

>  <rotatable_bond_torsions>  (912) 
1,0,2,9;0,2,9,11;2,9,11,12;9,11,13,14

$$$$

     RDKit          3D

 17 19  0  0  0  0  0  0  0  0999 V2000
  -28.3320   -7.4870  -31.3740 C   0  0  0  0  0  0  0  0  0  0  0  0
  -27.6640   -6.6890  -32.2540 N   0  0  0  0  0  0  0  0  0  0  0  0
  -28.4960   -8.9800  -31.5050 N   0  0  0  0  0  0  0  0  0  0  0  0
  -27.7220   -5.4040  -31.7970 C   0  0  0  0  0  0  0  0  0  0  0  0
  -28.4400   -5.4620  -30.6230 C   0  0  0  0  0  0  0  0  0  0  0  0
  -28.8090   -6.7310  -30.3660 N   0  0  0  0  0  0  0  0  0  0  0  0
  -28.4840   -4.1740  -30.1890 N   0  0  0  0  0  0  0  0  0  0  0  0
  -27.8570   -3.4040  -31.0090 O   0  0  0  0  0  0  0  0  0  0  0  0
  -27.3630   -4.0900  -32.0180 C   0  0  0  0  0  0  0  0  0  0  0  0
  -28.8550   -9.7270  -30.5970 C   0  0  0  0  0  0  0  0  0  0  0  0
  -29.2980   -9.4530  -29.4340 O   0  0  0  0  0  0  0  0  0  0  0  0
  -28.7830  -11.2770  -30.8460 C   0  0  0  0  0  0  0  0  0  0  0  0
  -28.8160  -11.8330  -32.1270 C   0  0  0  0  0  0  0  0  0  0  0  0
  -28.6840  -12.1200  -29.7530 C   0  0  0  0  0  0  0  0  0  0  0  0
  -28.6210  -13.4990  -29.9740 C   0  0  0  0  0  0  0  0  0  0  0  0
  -28.6570  -14.0260  -31.2600 C   0  0  0  0  0  0  0  0  0  0  0  0
  -28.7540  -13.1670  -32.2950 N   0  0  0  0  0  0  0  0  0  0  0  0
  1  2  2  0
  1  3  1  0
  1  6  1  0
  2  4  1  0
  3 10  1  0
  4  9  2  0
  4  5  1  0
  5  6  1  0
  5  7  2  0
  7  8  1  0
  8  9  1  0
 10 12  1  0
 10 11  2  0
 12 13  2  0
 12 14  1  0
 13 17  1  0
 14 15  2  0
 15 16  1  0
 16 17  2  0
M  END
>  <name>  (913) 
Car Nac Nd0 Car Car Nd0 Nac O_a Car Cs2 .=O Car Car Car Car Car Nac

>  <indices>  (913) 
[0, 1, 2]

>  <tasks>  (913) 
probe_placing close_aromatic_ring close_aromatic_ring close_aromatic_ring ring_built fix_Car close_aromatic_ring close_aromatic_ring build_to_Nd0 build_DB_to_Cs2 build_SB_to_Cs2 close_aromatic_ring close_aromatic_ring close_aromatic_ring close_aromatic_ring

>  <prot_clashes>  (913) 
1

>  <NBS phar>  (913) 
0.2

>  <NBS_non-phar>  (913) 
0.4848768570843865

>  <NBS>  (913) 
0.6848768570843865

>  <source_stage>  (913) 
scored

>  <source_iter>  (913) 
14

>  <source_parent_mol>  (913) 
4

>  <source_scenario>  (913) 
1 2 4 0 9 8 0 1 0 3 8 0 0 4

>  <source_rank_in_scored_call>  (913) 
4

>  <source_current_task>  (913) 
close_aromatic_ring

>  <scenario>  (913) 
1 2 4 0 9 8 0 1 0 3 8 0 0

>  <protected_ring_attachments>  (913) 
0,5,4,6|5,4,6;1,3,4,6|3,4,6;3,1,0,2|1,0,2;4,5,0,2|5,0,2

>  <current_task>  (913) 
no_task

>  <rotatable_bond_torsions>  (913) 
1,0,2,9;0,2,9,11;2,9,11,13;9,11,13,14

$$$$

     RDKit          3D

 17 19  0  0  0  0  0  0  0  0999 V2000
  -28.2520   -7.5200  -31.2930 C   0  0  0  0  0  0  0  0  0  0  0  0
  -27.5620   -6.7210  -32.1550 N   0  0  0  0  0  0  0  0  0  0  0  0
  -28.3570   -9.0210  -31.3930 N   0  0  0  0  0  0  0  0  0  0  0  0
  -27.6900   -5.4270  -31.7370 C   0  0  0  0  0  0  0  0  0  0  0  0
  -28.4740   -5.4820  -30.6060 C   0  0  0  0  0  0  0  0  0  0  0  0
  -28.8130   -6.7560  -30.3360 N   0  0  0  0  0  0  0  0  0  0  0  0
  -28.5860   -4.1850  -30.2100 N   0  0  0  0  0  0  0  0  0  0  0  0
  -27.9390   -3.4150  -31.0130 O   0  0  0  0  0  0  0  0  0  0  0  0
  -27.3640   -4.1080  -31.9730 C   0  0  0  0  0  0  0  0  0  0  0  0
  -28.7430   -9.7570  -30.4870 C   0  0  0  0  0  0  0  0  0  0  0  0
  -29.2630   -9.4690  -29.3600 O   0  0  0  0  0  0  0  0  0  0  0  0
  -28.6040  -11.2970  -30.6950 C   0  0  0  0  0  0  0  0  0  0  0  0
  -28.5550  -11.8440  -31.9780 C   0  0  0  0  0  0  0  0  0  0  0  0
  -28.5360  -12.1310  -29.5730 C   0  0  0  0  0  0  0  0  0  0  0  0
  -28.4160  -13.5110  -29.7810 C   0  0  0  0  0  0  0  0  0  0  0  0
  -28.3690  -14.0340  -31.0570 C   0  0  0  0  0  0  0  0  0  0  0  0
  -28.4380  -13.2050  -32.1710 C   0  0  0  0  0  0  0  0  0  0  0  0
  1  2  2  0
  1  3  1  0
  1  6  1  0
  2  4  1  0
  3 10  1  0
  4  9  2  0
  4  5  1  0
  5  6  1  0
  5  7  2  0
  7  8  1  0
  8  9  1  0
 10 12  1  0
 10 11  2  0
 12 13  2  0
 12 14  1  0
 13 17  1  0
 14 15  2  0
 15 16  1  0
 16 17  2  0
M  END
>  <name>  (914) 
Car Nac Nd0 Car Car Nd0 Nac O_a Car Cs2 .=O Car Car Car Car Car Car

>  <indices>  (914) 
[0, 1, 2]

>  <tasks>  (914) 
probe_placing close_aromatic_ring close_aromatic_ring close_aromatic_ring ring_built fix_Car close_aromatic_ring close_aromatic_ring build_to_Nd0 build_DB_to_Cs2 build_SB_to_Cs2 close_aromatic_ring close_aromatic_ring close_aromatic_ring close_aromatic_ring

>  <prot_clashes>  (914) 
1

>  <NBS phar>  (914) 
0.2

>  <NBS_non-phar>  (914) 
0.4584974681629854

>  <NBS>  (914) 
0.6584974681629854

>  <source_stage>  (914) 
scored

>  <source_iter>  (914) 
14

>  <source_parent_mol>  (914) 
4

>  <source_scenario>  (914) 
1 2 4 0 9 8 0 1 0 3 8 0 0 4

>  <source_rank_in_scored_call>  (914) 
5

>  <source_current_task>  (914) 
close_aromatic_ring

>  <scenario>  (914) 
1 2 4 0 9 8 0 1 0 3 8 0 0

>  <protected_ring_attachments>  (914) 
0,5,4,6|5,4,6;1,3,4,6|3,4,6;3,1,0,2|1,0,2;4,5,0,2|5,0,2

>  <current_task>  (914) 
no_task

>  <rotatable_bond_torsions>  (914) 
1,0,2,9;0,2,9,11;2,9,11,13;9,11,13,14

$$$$

     RDKit          3D

 14 15  0  0  0  0  0  0  0  0999 V2000
  -28.0420   -8.2680  -30.8720 C   0  0  0  0  0  0  0  0  0  0  0  0
  -27.7390   -7.1570  -31.6060 N   0  0  0  0  0  0  0  0  0  0  0  0
  -27.6930   -9.6370  -31.3410 N   0  0  0  0  0  0  0  0  0  0  0  0
  -28.1330   -6.0780  -30.8990 C   0  0  0  0  0  0  0  0  0  0  0  0
  -28.6880   -6.4950  -29.7100 C   0  0  0  0  0  0  0  0  0  0  0  0
  -28.6130   -7.8480  -29.7350 N   0  0  0  0  0  0  0  0  0  0  0  0
  -28.0650   -4.7650  -31.1720 N   0  0  0  0  0  0  0  0  0  0  0  0
  -28.5380   -3.8710  -30.2800 C   0  0  0  0  0  0  0  0  0  0  0  0
  -29.0980   -4.2690  -29.0810 C   0  0  0  0  0  0  0  0  0  0  0  0
  -29.1870   -5.6110  -28.7640 C   0  0  0  0  0  0  0  0  0  0  0  0
  -29.0680   -8.7890  -28.6660 C   0  0  0  0  0  0  0  0  0  0  0  0
  -28.5880  -10.5200  -31.7680 C   0  0  0  0  0  0  0  0  0  0  0  0
  -29.7990  -10.3370  -31.9830 O   0  0  0  0  0  0  0  0  0  0  0  0
  -28.1270  -11.9370  -32.0750 C   0  0  0  0  0  0  0  0  0  0  0  0
  1  2  2  0
  1  3  1  0
  1  6  1  0
  2  4  1  0
  3 12  1  0
  4  7  1  0
  4  5  2  0
  5  6  1  0
  5 10  1  0
  6 11  1  0
  7  8  2  0
  8  9  1  0
  9 10  2  0
 12 14  1  0
 12 13  2  0
M  END
>  <name>  (915) 
Car Nac Nd0 Car Car Nac Nac Car Car Car Cs3 Cs2 .=O Cs3

>  <indices>  (915) 
[0, 1, 2]

>  <tasks>  (915) 
probe_placing close_aromatic_ring close_aromatic_ring close_aromatic_ring ring_built fix_Car close_aromatic_ring close_aromatic_ring close_aromatic_ring build_to_Nac build_to_Nd0 build_DB_to_Cs2

>  <prot_clashes>  (915) 
1

>  <NBS phar>  (915) 
0.12

>  <NBS_non-phar>  (915) 
0.6725719996861049

>  <NBS>  (915) 
0.7925719996861049

>  <source_stage>  (915) 
scored

>  <source_iter>  (915) 
11

>  <source_parent_mol>  (915) 
0

>  <source_scenario>  (915) 
1 2 4 1 1 3 1 0 2 0 0

>  <source_rank_in_scored_call>  (915) 
0

>  <source_current_task>  (915) 
build_SB_to_Cs2

>  <scenario>  (915) 
1 2 4 1 1 3 1 0 2 0

>  <protected_ring_attachments>  (915) 
0,1,3,6|1,3,6;3,1,0,2|1,0,2;4,5,0,2|5,0,2;5,4,3,6|4,3,6

>  <current_task>  (915) 
no_task

>  <rotatable_bond_torsions>  (915) 
1,0,2,11;0,2,11,12

$$$$

     RDKit          3D

 14 15  0  0  0  0  0  0  0  0999 V2000
  -28.6930   -7.7520  -31.3380 C   0  0  0  0  0  0  0  0  0  0  0  0
  -28.2670   -6.7930  -32.2110 N   0  0  0  0  0  0  0  0  0  0  0  0
  -28.8970   -9.1650  -31.7600 N   0  0  0  0  0  0  0  0  0  0  0  0
  -28.1330   -5.6420  -31.5240 C   0  0  0  0  0  0  0  0  0  0  0  0
  -28.4720   -5.8600  -30.2080 C   0  0  0  0  0  0  0  0  0  0  0  0
  -28.8110   -7.1680  -30.1350 N   0  0  0  0  0  0  0  0  0  0  0  0
  -27.7450   -4.4150  -31.9130 N   0  0  0  0  0  0  0  0  0  0  0  0
  -27.6950   -3.4130  -31.0120 C   0  0  0  0  0  0  0  0  0  0  0  0
  -28.0310   -3.6100  -29.6870 C   0  0  0  0  0  0  0  0  0  0  0  0
  -28.4340   -4.8570  -29.2480 C   0  0  0  0  0  0  0  0  0  0  0  0
  -29.2460   -7.9170  -28.9160 C   0  0  0  0  0  0  0  0  0  0  0  0
  -27.9440  -10.0610  -31.4590 C   0  0  0  0  0  0  0  0  0  0  0  0
  -26.9410   -9.9860  -30.7570 O   0  0  0  0  0  0  0  0  0  0  0  0
  -28.1150  -11.4730  -32.0680 C   0  0  0  0  0  0  0  0  0  0  0  0
  1  2  2  0
  1  3  1  0
  1  6  1  0
  2  4  1  0
  3 12  1  0
  4  7  1  0
  4  5  2  0
  5  6  1  0
  5 10  1  0
  6 11  1  0
  7  8  2  0
  8  9  1  0
  9 10  2  0
 12 14  1  0
 12 13  2  0
M  END
>  <name>  (916) 
Car Nac Nd0 Car Car Nac Nac Car Car Car Cs3 Cs2 .=O Cs3

>  <indices>  (916) 
[0, 1, 2]

>  <tasks>  (916) 
probe_placing close_aromatic_ring close_aromatic_ring close_aromatic_ring ring_built fix_Car close_aromatic_ring close_aromatic_ring close_aromatic_ring build_to_Nac build_to_Nd0 build_DB_to_Cs2

>  <prot_clashes>  (916) 
5

>  <NBS phar>  (916) 
0.4000000000000001

>  <NBS_non-phar>  (916) 
0.7181007521493095

>  <NBS>  (916) 
1.1181007521493096

>  <source_stage>  (916) 
scored

>  <source_iter>  (916) 
11

>  <source_parent_mol>  (916) 
0

>  <source_scenario>  (916) 
1 2 4 1 1 3 1 0 2 6 0

>  <source_rank_in_scored_call>  (916) 
0

>  <source_current_task>  (916) 
build_SB_to_Cs2

>  <scenario>  (916) 
1 2 4 1 1 3 1 0 2 6

>  <protected_ring_attachments>  (916) 
0,1,3,6|1,3,6;3,1,0,2|1,0,2;4,5,0,2|5,0,2;5,4,3,6|4,3,6

>  <current_task>  (916) 
no_task

>  <rotatable_bond_torsions>  (916) 
1,0,2,11;0,2,11,12

$$$$

     RDKit          3D

 13 14  0  0  0  0  0  0  0  0999 V2000
  -27.8310   -7.9220  -31.2420 C   0  0  0  0  0  0  0  0  0  0  0  0
  -27.6180   -6.8300  -32.0010 N   0  0  0  0  0  0  0  0  0  0  0  0
  -27.5520   -9.3760  -31.4120 N   0  0  0  0  0  0  0  0  0  0  0  0
  -27.9940   -5.7180  -31.3720 C   0  0  0  0  0  0  0  0  0  0  0  0
  -28.4760   -6.1110  -30.1420 C   0  0  0  0  0  0  0  0  0  0  0  0
  -28.3620   -7.4650  -30.0950 N   0  0  0  0  0  0  0  0  0  0  0  0
  -28.8510   -4.9820  -29.5250 N   0  0  0  0  0  0  0  0  0  0  0  0
  -28.6430   -3.9460  -30.2570 O   0  0  0  0  0  0  0  0  0  0  0  0
  -28.1270   -4.3500  -31.3850 C   0  0  0  0  0  0  0  0  0  0  0  0
  -28.7890   -8.0970  -28.7880 C   0  0  0  0  0  0  0  0  0  0  0  0
  -28.4350  -10.2540  -31.7550 C   0  0  0  0  0  0  0  0  0  0  0  0
  -29.6170  -10.0650  -32.1380 O   0  0  0  0  0  0  0  0  0  0  0  0
  -28.0620  -11.7370  -31.7450 C   0  0  0  0  0  0  0  0  0  0  0  0
  1  2  2  0
  1  3  1  0
  1  6  1  0
  2  4  1  0
  3 11  1  0
  4  9  2  0
  4  5  1  0
  5  6  1  0
  5  7  2  0
  6 10  1  0
  7  8  1  0
  8  9  1  0
 11 12  2  0
 11 13  1  0
M  END
>  <name>  (917) 
Car Nac Nd0 Car Car Nac Nac O_a Car Cs3 Cs2 .=O Cs3

>  <indices>  (917) 
[0, 1, 2]

>  <tasks>  (917) 
probe_placing close_aromatic_ring close_aromatic_ring close_aromatic_ring ring_built fix_Car close_aromatic_ring close_aromatic_ring build_to_Nac build_to_Nd0 build_DB_to_Cs2

>  <prot_clashes>  (917) 
2

>  <NBS phar>  (917) 
0.38000000000000006

>  <NBS_non-phar>  (917) 
0.7166844147902268

>  <NBS>  (917) 
1.0966844147902268

>  <source_stage>  (917) 
scored

>  <source_iter>  (917) 
10

>  <source_parent_mol>  (917) 
0

>  <source_scenario>  (917) 
1 2 4 1 6 6 0 0 3 0

>  <source_rank_in_scored_call>  (917) 
0

>  <source_current_task>  (917) 
build_SB_to_Cs2

>  <scenario>  (917) 
1 2 4 1 6 6 0 0 3

>  <protected_ring_attachments>  (917) 
0,5,4,6|5,4,6;1,3,4,6|3,4,6;3,1,0,2|1,0,2;4,5,0,2|5,0,2

>  <current_task>  (917) 
no_task

>  <rotatable_bond_torsions>  (917) 
1,0,2,10;0,2,10,11

$$$$

     RDKit          3D

 15 17  0  0  0  0  0  0  0  0999 V2000
  -27.8410   -7.7430  -30.9280 C   0  0  0  0  0  0  0  0  0  0  0  0
  -27.9800   -6.8120  -31.8880 N   0  0  0  0  0  0  0  0  0  0  0  0
  -27.5670   -9.2080  -30.9320 N   0  0  0  0  0  0  0  0  0  0  0  0
  -28.1580   -5.5980  -31.3710 C   0  0  0  0  0  0  0  0  0  0  0  0
  -28.1330   -5.7530  -30.0030 C   0  0  0  0  0  0  0  0  0  0  0  0
  -27.9400   -7.0770  -29.7660 N   0  0  0  0  0  0  0  0  0  0  0  0
  -28.3140   -4.5260  -29.4970 N   0  0  0  0  0  0  0  0  0  0  0  0
  -28.4450   -3.6440  -30.4250 O   0  0  0  0  0  0  0  0  0  0  0  0
  -28.3570   -4.2530  -31.5730 C   0  0  0  0  0  0  0  0  0  0  0  0
  -27.8240   -7.4550  -28.3040 C   0  0  0  0  0  0  0  0  0  0  0  0
  -28.3750  -10.4220  -30.9850 C   0  0  2  0  0  0  0  0  0  0  0  0
  -27.6870  -11.5260  -31.7810 C   0  0  0  0  0  0  0  0  0  0  0  0
  -28.8510  -12.4440  -32.1100 C   0  0  0  0  0  0  0  0  0  0  0  0
  -29.5330  -12.4730  -30.7560 C   0  0  0  0  0  0  0  0  0  0  0  0
  -29.7310  -10.9740  -30.5800 C   0  0  0  0  0  0  0  0  0  0  0  0
  1  2  2  0
  1  3  1  0
  1  6  1  0
  2  4  1  0
 11  3  1  6
  4  9  2  0
  4  5  1  0
  5  6  1  0
  5  7  2  0
  6 10  1  0
  7  8  1  0
  8  9  1  0
 11 12  1  0
 11 15  1  0
 12 13  1  0
 13 14  1  0
 14 15  1  0
M  END
>  <name>  (918) 
Car Nac Nd0 Car Car Nac Nac O_a Car Cs3 C3r C3r C3r C3r C3r

>  <indices>  (918) 
[0, 1, 2]

>  <tasks>  (918) 
probe_placing close_aromatic_ring close_aromatic_ring close_aromatic_ring ring_built fix_Car close_aromatic_ring close_aromatic_ring build_to_Nac build_to_Nd0 close_aliphatic_ring close_aliphatic_ring close_aliphatic_ring

>  <prot_clashes>  (918) 
8

>  <NBS phar>  (918) 
0.04

>  <NBS_non-phar>  (918) 
0.49235827128092446

>  <NBS>  (918) 
0.5323582712809245

>  <source_stage>  (918) 
scored

>  <source_iter>  (918) 
12

>  <source_parent_mol>  (918) 
1

>  <source_scenario>  (918) 
1 2 4 1 6 6 0 0 7 0 3 1

>  <source_rank_in_scored_call>  (918) 
3

>  <source_current_task>  (918) 
close_aliphatic_ring

>  <scenario>  (918) 
1 2 4 1 6 6 0 0 7 0 3

>  <protected_ring_attachments>  (918) 
0,5,4,6|5,4,6;1,3,4,6|3,4,6;3,1,0,2|1,0,2;4,5,0,2|5,0,2

>  <current_task>  (918) 
no_task

>  <rotatable_bond_torsions>  (918) 
1,0,2,10;0,2,10,11;2,10,11,12;10,11,12,13

$$$$

     RDKit          3D

 13 14  0  0  0  0  0  0  0  0999 V2000
  -27.5860   -7.8060  -30.9940 C   0  0  0  0  0  0  0  0  0  0  0  0
  -27.9610   -7.0060  -32.0300 N   0  0  0  0  0  0  0  0  0  0  0  0
  -27.3130   -9.0960  -31.0130 N   0  0  0  0  0  0  0  0  0  0  0  0
  -28.4380   -5.7760  -31.7970 C   0  0  0  0  0  0  0  0  0  0  0  0
  -28.5810   -5.2400  -30.5340 C   0  0  0  0  0  0  0  0  0  0  0  0
  -28.2070   -6.0300  -29.4590 C   0  0  0  0  0  0  0  0  0  0  0  0
  -27.7220   -7.2830  -29.7180 C   0  0  0  0  0  0  0  0  0  0  0  0
  -28.4660  -10.0680  -30.8520 C   0  0  1  0  0  0  0  0  0  0  0  0
  -27.9240  -11.2630  -30.0420 C   0  0  0  0  0  0  0  0  0  0  0  0
  -29.0430  -11.9100  -29.5540 O   0  0  0  0  0  0  0  0  0  0  0  0
  -30.1860  -11.1040  -29.7060 C   0  0  0  0  0  0  0  0  0  0  0  0
  -29.7000   -9.7170  -30.0060 C   0  0  0  0  0  0  0  0  0  0  0  0
  -27.3130   -8.1440  -28.5490 C   0  0  0  0  0  0  0  0  0  0  0  0
  1  2  2  0
  1  3  1  0
  1  7  1  0
  2  4  1  0
  8  3  1  1
  4  5  2  0
  5  6  1  0
  6  7  2  0
  7 13  1  0
  8  9  1  0
  8 12  1  0
  9 10  1  0
 10 11  1  0
 11 12  1  0
M  END
>  <name>  (919) 
Car Nac Nd0 Car Car Car Car C3r C3r O_a C3r C3r Cs3

>  <indices>  (919) 
[0, 1, 2]

>  <tasks>  (919) 
probe_placing close_aromatic_ring close_aromatic_ring close_aromatic_ring close_aromatic_ring ring_built build_to_Nd0 close_aliphatic_ring close_aliphatic_ring close_aliphatic_ring close_aliphatic_ring

>  <prot_clashes>  (919) 
9

>  <NBS phar>  (919) 
0.13999999999999999

>  <NBS_non-phar>  (919) 
0.689146482027494

>  <NBS>  (919) 
0.829146482027494

>  <source_stage>  (919) 
scored

>  <source_iter>  (919) 
10

>  <source_parent_mol>  (919) 
2

>  <source_scenario>  (919) 
1 2 5 0 0 0 0 0 0 2

>  <source_rank_in_scored_call>  (919) 
4

>  <source_current_task>  (919) 
build_orthosubstituent_to_rotated_aniline_Nd0

>  <scenario>  (919) 
1 2 5 0 0 0 0 0 0

>  <protected_ring_attachments>  (919) 
3,1,0,2|1,0,2;5,6,0,2|6,0,2;9,8,7,2|8,7,2;10,11,7,2|11,7,2

>  <current_task>  (919) 
no_task

>  <rotatable_bond_torsions>  (919) 
1,0,2,7;0,2,7,8

>  <rotated_aniline_Nd0_dihedral>  (919) 
86.48

>  <rotated_aniline_Nd0_tolerance>  (919) 
30.0

>  <rotated_aniline_Nd0_context>  (919) 
nonaromatic_ring

>  <rotated_aniline_Nd0_substituent_idx>  (919) 
7

>  <rotated_aniline_Nd0_ring>  (919) 
1 3 4 5 6 0

>  <flag ortho>  (919) 


$$$$

     RDKit          3D

 13 14  0  0  0  0  0  0  0  0999 V2000
  -27.6020   -7.8790  -30.9400 C   0  0  0  0  0  0  0  0  0  0  0  0
  -27.9770   -7.0220  -31.9280 N   0  0  0  0  0  0  0  0  0  0  0  0
  -27.3630   -9.1730  -31.0260 N   0  0  0  0  0  0  0  0  0  0  0  0
  -28.4190   -5.7930  -31.6260 C   0  0  0  0  0  0  0  0  0  0  0  0
  -28.5230   -5.3150  -30.3370 C   0  0  0  0  0  0  0  0  0  0  0  0
  -28.1470   -6.1650  -29.3090 C   0  0  0  0  0  0  0  0  0  0  0  0
  -27.6990   -7.4160  -29.6380 C   0  0  0  0  0  0  0  0  0  0  0  0
  -28.5360  -10.1240  -30.8870 C   0  0  1  0  0  0  0  0  0  0  0  0
  -28.0080  -11.3690  -30.1460 C   0  0  0  0  0  0  0  0  0  0  0  0
  -29.1320  -12.0120  -29.6670 O   0  0  0  0  0  0  0  0  0  0  0  0
  -30.2580  -11.1720  -29.7560 C   0  0  0  0  0  0  0  0  0  0  0  0
  -29.7430   -9.7840  -29.9990 C   0  0  0  0  0  0  0  0  0  0  0  0
  -27.3240   -8.2600  -28.6190 O   0  0  0  0  0  0  0  0  0  0  0  0
  1  2  2  0
  1  3  1  0
  1  7  1  0
  2  4  1  0
  8  3  1  1
  4  5  2  0
  5  6  1  0
  6  7  2  0
  7 13  1  0
  8  9  1  0
  8 12  1  0
  9 10  1  0
 10 11  1  0
 11 12  1  0
M  CHG  1  13  -1
M  END
>  <name>  (920) 
Car Nac Nd0 Car Car Car Car C3r C3r O_a C3r C3r .=O

>  <indices>  (920) 
[0, 1, 2]

>  <tasks>  (920) 
probe_placing close_aromatic_ring close_aromatic_ring close_aromatic_ring close_aromatic_ring ring_built build_to_Nd0 close_aliphatic_ring close_aliphatic_ring close_aliphatic_ring close_aliphatic_ring

>  <prot_clashes>  (920) 
7

>  <NBS phar>  (920) 
0.13999999999999999

>  <NBS_non-phar>  (920) 
0.6386592571551983

>  <NBS>  (920) 
0.7786592571551983

>  <source_stage>  (920) 
scored

>  <source_iter>  (920) 
10

>  <source_parent_mol>  (920) 
2

>  <source_scenario>  (920) 
1 2 5 0 0 0 0 0 0 2

>  <source_rank_in_scored_call>  (920) 
8

>  <source_current_task>  (920) 
build_orthosubstituent_to_rotated_aniline_Nd0

>  <scenario>  (920) 
1 2 5 0 0 0 0 0 0

>  <protected_ring_attachments>  (920) 
3,1,0,2|1,0,2;5,6,0,2|6,0,2;9,8,7,2|8,7,2;10,11,7,2|11,7,2

>  <current_task>  (920) 
no_task

>  <rotatable_bond_torsions>  (920) 
1,0,2,7;0,2,7,8

>  <rotated_aniline_Nd0_dihedral>  (920) 
86.48

>  <rotated_aniline_Nd0_tolerance>  (920) 
30.0

>  <rotated_aniline_Nd0_context>  (920) 
nonaromatic_ring

>  <rotated_aniline_Nd0_substituent_idx>  (920) 
7

>  <rotated_aniline_Nd0_ring>  (920) 
1 3 4 5 6 0

>  <flag ortho>  (920) 


$$$$

     RDKit          3D

 13 14  0  0  0  0  0  0  0  0999 V2000
  -27.3730   -7.5270  -30.9460 C   0  0  0  0  0  0  0  0  0  0  0  0
  -27.4500   -6.8400  -32.1190 N   0  0  0  0  0  0  0  0  0  0  0  0
  -27.0720   -8.7970  -30.7600 N   0  0  0  0  0  0  0  0  0  0  0  0
  -28.0090   -5.6220  -32.1530 C   0  0  0  0  0  0  0  0  0  0  0  0
  -28.5280   -4.9880  -31.0430 C   0  0  0  0  0  0  0  0  0  0  0  0
  -28.4620   -5.6630  -29.8350 C   0  0  0  0  0  0  0  0  0  0  0  0
  -27.8890   -6.9060  -29.8210 C   0  0  0  0  0  0  0  0  0  0  0  0
  -28.0870   -9.8300  -30.8640 C   0  0  1  0  0  0  0  0  0  0  0  0
  -28.0610  -10.7660  -29.6460 C   0  0  0  0  0  0  0  0  0  0  0  0
  -28.9190  -11.8010  -29.8770 O   0  0  0  0  0  0  0  0  0  0  0  0
  -29.6810  -11.5340  -30.9860 C   0  0  0  0  0  0  0  0  0  0  0  0
  -29.4760  -10.0650  -31.3790 C   0  0  0  0  0  0  0  0  0  0  0  0
  -27.8160   -7.6410  -28.5060 C   0  0  0  0  0  0  0  0  0  0  0  0
  1  2  2  0
  1  3  1  0
  1  7  1  0
  2  4  1  0
  8  3  1  1
  4  5  2  0
  5  6  1  0
  6  7  2  0
  7 13  1  0
  8 12  1  0
  8  9  1  0
  9 10  1  0
 10 11  1  0
 11 12  1  0
M  END
>  <name>  (921) 
Car Nac Nd0 Car Car Car Car C3r C3r O_a C3r C3r Cs3

>  <indices>  (921) 
[0, 1, 2]

>  <tasks>  (921) 
probe_placing close_aromatic_ring close_aromatic_ring close_aromatic_ring close_aromatic_ring ring_built build_to_Nd0 close_aliphatic_ring close_aliphatic_ring close_aliphatic_ring close_aliphatic_ring

>  <prot_clashes>  (921) 
9

>  <NBS phar>  (921) 
0.12

>  <NBS_non-phar>  (921) 
0.4283267167898325

>  <NBS>  (921) 
0.5483267167898325

>  <source_stage>  (921) 
scored

>  <source_iter>  (921) 
10

>  <source_parent_mol>  (921) 
1

>  <source_scenario>  (921) 
1 2 5 0 0 0 0 0 4 1

>  <source_rank_in_scored_call>  (921) 
3

>  <source_current_task>  (921) 
build_orthosubstituent_to_rotated_aniline_Nd0

>  <scenario>  (921) 
1 2 5 0 0 0 0 0 4

>  <protected_ring_attachments>  (921) 
3,1,0,2|1,0,2;5,6,0,2|6,0,2;9,8,7,2|8,7,2;10,11,7,2|11,7,2

>  <current_task>  (921) 
no_task

>  <rotatable_bond_torsions>  (921) 
1,0,2,7;0,2,7,8

>  <rotated_aniline_Nd0_dihedral>  (921) 
84.64

>  <rotated_aniline_Nd0_tolerance>  (921) 
30.0

>  <rotated_aniline_Nd0_context>  (921) 
nonaromatic_ring

>  <rotated_aniline_Nd0_substituent_idx>  (921) 
7

>  <rotated_aniline_Nd0_ring>  (921) 
1 3 4 5 6 0

>  <flag ortho>  (921) 


$$$$

     RDKit          3D

 13 14  0  0  0  0  0  0  0  0999 V2000
  -27.3500   -7.4040  -30.9780 C   0  0  0  0  0  0  0  0  0  0  0  0
  -27.4260   -6.7120  -32.1480 N   0  0  0  0  0  0  0  0  0  0  0  0
  -27.0530   -8.6760  -30.7980 N   0  0  0  0  0  0  0  0  0  0  0  0
  -27.9810   -5.4920  -32.1760 C   0  0  0  0  0  0  0  0  0  0  0  0
  -28.4970   -4.8610  -31.0620 C   0  0  0  0  0  0  0  0  0  0  0  0
  -28.4320   -5.5420  -29.8570 C   0  0  0  0  0  0  0  0  0  0  0  0
  -27.8630   -6.7870  -29.8500 C   0  0  0  0  0  0  0  0  0  0  0  0
  -28.0720   -9.7050  -30.9060 C   0  0  1  0  0  0  0  0  0  0  0  0
  -28.0480  -10.6470  -29.6920 C   0  0  0  0  0  0  0  0  0  0  0  0
  -28.9100  -11.6780  -29.9270 O   0  0  0  0  0  0  0  0  0  0  0  0
  -29.6720  -11.4030  -31.0340 C   0  0  0  0  0  0  0  0  0  0  0  0
  -29.4620   -9.9330  -31.4210 C   0  0  0  0  0  0  0  0  0  0  0  0
  -27.7970   -7.4620  -28.6540 O   0  0  0  0  0  0  0  0  0  0  0  0
  1  2  2  0
  1  3  1  0
  1  7  1  0
  2  4  1  0
  8  3  1  1
  4  5  2  0
  5  6  1  0
  6  7  2  0
  7 13  1  0
  8 12  1  0
  8  9  1  0
  9 10  1  0
 10 11  1  0
 11 12  1  0
M  CHG  1  13  -1
M  END
>  <name>  (922) 
Car Nac Nd0 Car Car Car Car C3r C3r O_a C3r C3r .=O

>  <indices>  (922) 
[0, 1, 2]

>  <tasks>  (922) 
probe_placing close_aromatic_ring close_aromatic_ring close_aromatic_ring close_aromatic_ring ring_built build_to_Nd0 close_aliphatic_ring close_aliphatic_ring close_aliphatic_ring close_aliphatic_ring

>  <prot_clashes>  (922) 
9

>  <NBS phar>  (922) 
0.12

>  <NBS_non-phar>  (922) 
0.3812435590303861

>  <NBS>  (922) 
0.5012435590303861

>  <source_stage>  (922) 
scored

>  <source_iter>  (922) 
10

>  <source_parent_mol>  (922) 
1

>  <source_scenario>  (922) 
1 2 5 0 0 0 0 0 4 1

>  <source_rank_in_scored_call>  (922) 
19

>  <source_current_task>  (922) 
build_orthosubstituent_to_rotated_aniline_Nd0

>  <scenario>  (922) 
1 2 5 0 0 0 0 0 4

>  <protected_ring_attachments>  (922) 
3,1,0,2|1,0,2;5,6,0,2|6,0,2;9,8,7,2|8,7,2;10,11,7,2|11,7,2

>  <current_task>  (922) 
no_task

>  <rotatable_bond_torsions>  (922) 
1,0,2,7;0,2,7,8

>  <rotated_aniline_Nd0_dihedral>  (922) 
84.64

>  <rotated_aniline_Nd0_tolerance>  (922) 
30.0

>  <rotated_aniline_Nd0_context>  (922) 
nonaromatic_ring

>  <rotated_aniline_Nd0_substituent_idx>  (922) 
7

>  <rotated_aniline_Nd0_ring>  (922) 
1 3 4 5 6 0

>  <flag ortho>  (922) 


$$$$

     RDKit          3D

 14 15  0  0  0  0  0  0  0  0999 V2000
  -27.3670   -7.6010  -31.0680 C   0  0  0  0  0  0  0  0  0  0  0  0
  -27.5990   -6.7050  -32.0680 N   0  0  0  0  0  0  0  0  0  0  0  0
  -27.0130   -8.8670  -31.1700 N   0  0  0  0  0  0  0  0  0  0  0  0
  -28.1900   -5.5320  -31.8000 C   0  0  0  0  0  0  0  0  0  0  0  0
  -28.5920   -5.1500  -30.5370 C   0  0  0  0  0  0  0  0  0  0  0  0
  -28.3680   -6.0410  -29.5000 C   0  0  0  0  0  0  0  0  0  0  0  0
  -27.7650   -7.2340  -29.7940 C   0  0  0  0  0  0  0  0  0  0  0  0
  -28.0060   -9.9080  -31.3650 C   0  0  1  0  0  0  0  0  0  0  0  0
  -27.8140  -11.0590  -30.3650 C   0  0  0  0  0  0  0  0  0  0  0  0
  -28.6650  -12.0710  -30.7010 O   0  0  0  0  0  0  0  0  0  0  0  0
  -29.5580  -11.6320  -31.6450 C   0  0  0  0  0  0  0  0  0  0  0  0
  -29.4390  -10.1070  -31.7610 C   0  0  0  0  0  0  0  0  0  0  0  0
  -27.5200   -8.2040  -28.6650 C   0  0  0  0  0  0  0  0  0  0  0  0
  -27.9050   -7.7410  -27.2680 C   0  0  0  0  0  0  0  0  0  0  0  0
  1  2  2  0
  1  3  1  0
  1  7  1  0
  2  4  1  0
  8  3  1  1
  4  5  2  0
  5  6  1  0
  6  7  2  0
  7 13  1  0
  8 12  1  0
  8  9  1  0
  9 10  1  0
 10 11  1  0
 11 12  1  0
 13 14  1  0
M  END
>  <name>  (923) 
Car Nac Nd0 Car Car Car Car C3r C3r O_a C3r C3r Cs3 Cs3

>  <indices>  (923) 
[0, 1, 2]

>  <tasks>  (923) 
probe_placing close_aromatic_ring close_aromatic_ring close_aromatic_ring close_aromatic_ring ring_built build_to_Nd0 close_aliphatic_ring close_aliphatic_ring close_aliphatic_ring close_aliphatic_ring build_orthosubstituent_to_rotated_aniline_Nd0

>  <prot_clashes>  (923) 
12

>  <NBS phar>  (923) 
0.26000000000000006

>  <NBS_non-phar>  (923) 
0.6911437170846122

>  <NBS>  (923) 
0.9511437170846122

>  <source_stage>  (923) 
scored

>  <source_iter>  (923) 
11

>  <source_parent_mol>  (923) 
3

>  <source_scenario>  (923) 
1 2 5 0 0 0 0 0 4 1 3

>  <source_rank_in_scored_call>  (923) 
0

>  <source_current_task>  (923) 
no_task

>  <scenario>  (923) 
1 2 5 0 0 0 0 0 4 1

>  <protected_ring_attachments>  (923) 
3,1,0,2|1,0,2;5,6,0,2|6,0,2;9,8,7,2|8,7,2;10,11,7,2|11,7,2

>  <current_task>  (923) 
no_task

>  <rotatable_bond_torsions>  (923) 
1,0,2,7;0,2,7,8

>  <rotated_aniline_Nd0_dihedral>  (923) 
84.64

>  <rotated_aniline_Nd0_tolerance>  (923) 
30.0

>  <rotated_aniline_Nd0_context>  (923) 
nonaromatic_ring

>  <rotated_aniline_Nd0_substituent_idx>  (923) 
7

>  <rotated_aniline_Nd0_ring>  (923) 
1 3 4 5 6 0

>  <flag ortho>  (923) 


$$$$

     RDKit          3D

 14 15  0  0  0  0  0  0  0  0999 V2000
  -27.3600   -7.6530  -31.0640 C   0  0  0  0  0  0  0  0  0  0  0  0
  -27.6080   -6.7420  -32.0450 N   0  0  0  0  0  0  0  0  0  0  0  0
  -27.0110   -8.9180  -31.1920 N   0  0  0  0  0  0  0  0  0  0  0  0
  -28.1900   -5.5710  -31.7470 C   0  0  0  0  0  0  0  0  0  0  0  0
  -28.5670   -5.2080  -30.4710 C   0  0  0  0  0  0  0  0  0  0  0  0
  -28.3250   -6.1150  -29.4530 C   0  0  0  0  0  0  0  0  0  0  0  0
  -27.7310   -7.3050  -29.7770 C   0  0  0  0  0  0  0  0  0  0  0  0
  -28.0110   -9.9540  -31.3830 C   0  0  1  0  0  0  0  0  0  0  0  0
  -27.8020  -11.1210  -30.4060 C   0  0  0  0  0  0  0  0  0  0  0  0
  -28.6630  -12.1250  -30.7400 O   0  0  0  0  0  0  0  0  0  0  0  0
  -29.5730  -11.6700  -31.6600 C   0  0  0  0  0  0  0  0  0  0  0  0
  -29.4520  -10.1430  -31.7550 C   0  0  0  0  0  0  0  0  0  0  0  0
  -27.4670   -8.2930  -28.6680 C   0  0  0  0  0  0  0  0  0  0  0  0
  -27.8570   -7.7660  -27.2630 C   0  0  0  0  0  0  0  0  0  0  0  0
  1  2  2  0
  1  3  1  0
  1  7  1  0
  2  4  1  0
  8  3  1  1
  4  5  2  0
  5  6  1  0
  6  7  2  0
  7 13  1  0
  8 12  1  0
  8  9  1  0
  9 10  1  0
 10 11  1  0
 11 12  1  0
 13 14  1  0
M  END
>  <name>  (924) 
Car Nac Nd0 Car Car Car Car C3r C3r O_a C3r C3r Cs3 Cs3

>  <indices>  (924) 
[0, 1, 2]

>  <tasks>  (924) 
probe_placing close_aromatic_ring close_aromatic_ring close_aromatic_ring close_aromatic_ring ring_built build_to_Nd0 close_aliphatic_ring close_aliphatic_ring close_aliphatic_ring close_aliphatic_ring build_orthosubstituent_to_rotated_aniline_Nd0

>  <prot_clashes>  (924) 
12

>  <NBS phar>  (924) 
0.24000000000000005

>  <NBS_non-phar>  (924) 
0.6464242253984723

>  <NBS>  (924) 
0.8864242253984724

>  <source_stage>  (924) 
scored

>  <source_iter>  (924) 
11

>  <source_parent_mol>  (924) 
3

>  <source_scenario>  (924) 
1 2 5 0 0 0 0 0 4 1 3

>  <source_rank_in_scored_call>  (924) 
1

>  <source_current_task>  (924) 
no_task

>  <scenario>  (924) 
1 2 5 0 0 0 0 0 4 1

>  <protected_ring_attachments>  (924) 
3,1,0,2|1,0,2;5,6,0,2|6,0,2;9,8,7,2|8,7,2;10,11,7,2|11,7,2

>  <current_task>  (924) 
no_task

>  <rotatable_bond_torsions>  (924) 
1,0,2,7;0,2,7,8

>  <rotated_aniline_Nd0_dihedral>  (924) 
84.64

>  <rotated_aniline_Nd0_tolerance>  (924) 
30.0

>  <rotated_aniline_Nd0_context>  (924) 
nonaromatic_ring

>  <rotated_aniline_Nd0_substituent_idx>  (924) 
7

>  <rotated_aniline_Nd0_ring>  (924) 
1 3 4 5 6 0

>  <flag ortho>  (924) 


$$$$

     RDKit          3D

 14 15  0  0  0  0  0  0  0  0999 V2000
  -27.3770   -7.5000  -31.0160 C   0  0  0  0  0  0  0  0  0  0  0  0
  -27.6870   -6.7080  -32.0800 N   0  0  0  0  0  0  0  0  0  0  0  0
  -27.0450   -8.7750  -31.0150 N   0  0  0  0  0  0  0  0  0  0  0  0
  -28.2420   -5.5030  -31.8860 C   0  0  0  0  0  0  0  0  0  0  0  0
  -28.5290   -4.9850  -30.6400 C   0  0  0  0  0  0  0  0  0  0  0  0
  -28.2230   -5.7680  -29.5390 C   0  0  0  0  0  0  0  0  0  0  0  0
  -27.6590   -6.9960  -29.7570 C   0  0  0  0  0  0  0  0  0  0  0  0
  -28.0600   -9.8140  -31.0130 C   0  0  1  0  0  0  0  0  0  0  0  0
  -27.7910  -10.8580  -29.9190 C   0  0  0  0  0  0  0  0  0  0  0  0
  -28.6770  -11.8840  -30.0720 O   0  0  0  0  0  0  0  0  0  0  0  0
  -29.6450  -11.5290  -30.9780 C   0  0  0  0  0  0  0  0  0  0  0  0
  -29.5230  -10.0270  -31.2620 C   0  0  0  0  0  0  0  0  0  0  0  0
  -27.3250   -7.8490  -28.5590 C   0  0  0  0  0  0  0  0  0  0  0  0
  -28.4570   -8.3380  -27.4330 C   0  0  0  0  0  0  0  0  0  0  0  0
  1  2  2  0
  1  3  1  0
  1  7  1  0
  2  4  1  0
  8  3  1  1
  4  5  2  0
  5  6  1  0
  6  7  2  0
  7 13  1  0
  8 12  1  0
  8  9  1  0
  9 10  1  0
 10 11  1  0
 11 12  1  0
 13 14  1  0
M  END
>  <name>  (925) 
Car Nac Nd0 Car Car Car Car C3r C3r O_a C3r C3r Cs3 Cs3

>  <indices>  (925) 
[0, 1, 2]

>  <tasks>  (925) 
probe_placing close_aromatic_ring close_aromatic_ring close_aromatic_ring close_aromatic_ring ring_built build_to_Nd0 close_aliphatic_ring close_aliphatic_ring close_aliphatic_ring close_aliphatic_ring build_orthosubstituent_to_rotated_aniline_Nd0

>  <prot_clashes>  (925) 
11

>  <NBS phar>  (925) 
0.24000000000000005

>  <NBS_non-phar>  (925) 
0.5547669955662319

>  <NBS>  (925) 
0.794766995566232

>  <source_stage>  (925) 
scored

>  <source_iter>  (925) 
11

>  <source_parent_mol>  (925) 
3

>  <source_scenario>  (925) 
1 2 5 0 0 0 0 0 4 1 3

>  <source_rank_in_scored_call>  (925) 
13

>  <source_current_task>  (925) 
no_task

>  <scenario>  (925) 
1 2 5 0 0 0 0 0 4 1

>  <protected_ring_attachments>  (925) 
3,1,0,2|1,0,2;5,6,0,2|6,0,2;9,8,7,2|8,7,2;10,11,7,2|11,7,2

>  <current_task>  (925) 
no_task

>  <rotatable_bond_torsions>  (925) 
1,0,2,7;0,2,7,8

>  <rotated_aniline_Nd0_dihedral>  (925) 
84.64

>  <rotated_aniline_Nd0_tolerance>  (925) 
30.0

>  <rotated_aniline_Nd0_context>  (925) 
nonaromatic_ring

>  <rotated_aniline_Nd0_substituent_idx>  (925) 
7

>  <rotated_aniline_Nd0_ring>  (925) 
1 3 4 5 6 0

>  <flag ortho>  (925) 


$$$$

     RDKit          3D

 14 15  0  0  0  0  0  0  0  0999 V2000
  -27.3860   -7.5350  -30.9250 C   0  0  0  0  0  0  0  0  0  0  0  0
  -27.3310   -6.7840  -32.0600 N   0  0  0  0  0  0  0  0  0  0  0  0
  -27.0780   -8.8070  -30.7710 N   0  0  0  0  0  0  0  0  0  0  0  0
  -27.9130   -5.5770  -32.0990 C   0  0  0  0  0  0  0  0  0  0  0  0
  -28.5860   -5.0170  -31.0330 C   0  0  0  0  0  0  0  0  0  0  0  0
  -28.6570   -5.7590  -29.8650 C   0  0  0  0  0  0  0  0  0  0  0  0
  -28.0580   -6.9890  -29.8440 C   0  0  0  0  0  0  0  0  0  0  0  0
  -28.0440   -9.8520  -31.0610 C   0  0  1  0  0  0  0  0  0  0  0  0
  -28.1490  -10.8560  -29.9030 C   0  0  0  0  0  0  0  0  0  0  0  0
  -28.9420  -11.8920  -30.2980 O   0  0  0  0  0  0  0  0  0  0  0  0
  -29.5640  -11.5770  -31.4800 C   0  0  0  0  0  0  0  0  0  0  0  0
  -29.3490  -10.0840  -31.7630 C   0  0  0  0  0  0  0  0  0  0  0  0
  -28.1340   -7.7970  -28.5730 C   0  0  0  0  0  0  0  0  0  0  0  0
  -26.9480   -7.8080  -27.6400 C   0  0  0  0  0  0  0  0  0  0  0  0
  1  2  2  0
  1  3  1  0
  1  7  1  0
  2  4  1  0
  8  3  1  1
  4  5  2  0
  5  6  1  0
  6  7  2  0
  7 13  1  0
  8 12  1  0
  8  9  1  0
  9 10  1  0
 10 11  1  0
 11 12  1  0
 13 14  1  0
M  END
>  <name>  (926) 
Car Nac Nd0 Car Car Car Car C3r C3r O_a C3r C3r Cs3 Cs3

>  <indices>  (926) 
[0, 1, 2]

>  <tasks>  (926) 
probe_placing close_aromatic_ring close_aromatic_ring close_aromatic_ring close_aromatic_ring ring_built build_to_Nd0 close_aliphatic_ring close_aliphatic_ring close_aliphatic_ring close_aliphatic_ring build_orthosubstituent_to_rotated_aniline_Nd0

>  <prot_clashes>  (926) 
11

>  <NBS phar>  (926) 
0.15999999999999998

>  <NBS_non-phar>  (926) 
0.48556273324148996

>  <NBS>  (926) 
0.6455627332414899

>  <source_stage>  (926) 
scored

>  <source_iter>  (926) 
11

>  <source_parent_mol>  (926) 
3

>  <source_scenario>  (926) 
1 2 5 0 0 0 0 0 4 1 3

>  <source_rank_in_scored_call>  (926) 
34

>  <source_current_task>  (926) 
no_task

>  <scenario>  (926) 
1 2 5 0 0 0 0 0 4 1

>  <protected_ring_attachments>  (926) 
3,1,0,2|1,0,2;5,6,0,2|6,0,2;9,8,7,2|8,7,2;10,11,7,2|11,7,2

>  <current_task>  (926) 
no_task

>  <rotatable_bond_torsions>  (926) 
1,0,2,7;0,2,7,8

>  <rotated_aniline_Nd0_dihedral>  (926) 
84.64

>  <rotated_aniline_Nd0_tolerance>  (926) 
30.0

>  <rotated_aniline_Nd0_context>  (926) 
nonaromatic_ring

>  <rotated_aniline_Nd0_substituent_idx>  (926) 
7

>  <rotated_aniline_Nd0_ring>  (926) 
1 3 4 5 6 0

>  <flag ortho>  (926) 


$$$$

     RDKit          3D

 14 15  0  0  0  0  0  0  0  0999 V2000
  -27.3990   -7.5690  -30.8750 C   0  0  0  0  0  0  0  0  0  0  0  0
  -27.3180   -6.8240  -32.0120 N   0  0  0  0  0  0  0  0  0  0  0  0
  -27.0940   -8.8410  -30.7080 N   0  0  0  0  0  0  0  0  0  0  0  0
  -27.8990   -5.6170  -32.0710 C   0  0  0  0  0  0  0  0  0  0  0  0
  -28.5970   -5.0530  -31.0230 C   0  0  0  0  0  0  0  0  0  0  0  0
  -28.6940   -5.7880  -29.8530 C   0  0  0  0  0  0  0  0  0  0  0  0
  -28.0960   -7.0190  -29.8130 C   0  0  0  0  0  0  0  0  0  0  0  0
  -28.0530   -9.8880  -31.0140 C   0  0  1  0  0  0  0  0  0  0  0  0
  -28.1840  -10.8850  -29.8530 C   0  0  0  0  0  0  0  0  0  0  0  0
  -28.9680  -11.9240  -30.2620 O   0  0  0  0  0  0  0  0  0  0  0  0
  -29.5620  -11.6150  -31.4590 C   0  0  0  0  0  0  0  0  0  0  0  0
  -29.3410  -10.1230  -31.7450 C   0  0  0  0  0  0  0  0  0  0  0  0
  -28.2010   -7.8200  -28.5390 C   0  0  0  0  0  0  0  0  0  0  0  0
  -26.9390   -7.7640  -27.6460 C   0  0  0  0  0  0  0  0  0  0  0  0
  1  2  2  0
  1  3  1  0
  1  7  1  0
  2  4  1  0
  8  3  1  1
  4  5  2  0
  5  6  1  0
  6  7  2  0
  7 13  1  0
  8 12  1  0
  8  9  1  0
  9 10  1  0
 10 11  1  0
 11 12  1  0
 13 14  1  0
M  END
>  <name>  (927) 
Car Nac Nd0 Car Car Car Car C3r C3r O_a C3r C3r Cs3 Cs3

>  <indices>  (927) 
[0, 1, 2]

>  <tasks>  (927) 
probe_placing close_aromatic_ring close_aromatic_ring close_aromatic_ring close_aromatic_ring ring_built build_to_Nd0 close_aliphatic_ring close_aliphatic_ring close_aliphatic_ring close_aliphatic_ring build_orthosubstituent_to_rotated_aniline_Nd0

>  <prot_clashes>  (927) 
10

>  <NBS phar>  (927) 
0.15999999999999998

>  <NBS_non-phar>  (927) 
0.48221731185913086

>  <NBS>  (927) 
0.6422173118591308

>  <source_stage>  (927) 
scored

>  <source_iter>  (927) 
11

>  <source_parent_mol>  (927) 
3

>  <source_scenario>  (927) 
1 2 5 0 0 0 0 0 4 1 3

>  <source_rank_in_scored_call>  (927) 
35

>  <source_current_task>  (927) 
no_task

>  <scenario>  (927) 
1 2 5 0 0 0 0 0 4 1

>  <protected_ring_attachments>  (927) 
3,1,0,2|1,0,2;5,6,0,2|6,0,2;9,8,7,2|8,7,2;10,11,7,2|11,7,2

>  <current_task>  (927) 
no_task

>  <rotatable_bond_torsions>  (927) 
1,0,2,7;0,2,7,8

>  <rotated_aniline_Nd0_dihedral>  (927) 
84.64

>  <rotated_aniline_Nd0_tolerance>  (927) 
30.0

>  <rotated_aniline_Nd0_context>  (927) 
nonaromatic_ring

>  <rotated_aniline_Nd0_substituent_idx>  (927) 
7

>  <rotated_aniline_Nd0_ring>  (927) 
1 3 4 5 6 0

>  <flag ortho>  (927) 


$$$$

     RDKit          3D

 14 15  0  0  0  0  0  0  0  0999 V2000
  -27.3990   -7.5560  -30.9000 C   0  0  0  0  0  0  0  0  0  0  0  0
  -27.3180   -6.8160  -32.0390 N   0  0  0  0  0  0  0  0  0  0  0  0
  -27.0950   -8.8270  -30.7270 N   0  0  0  0  0  0  0  0  0  0  0  0
  -27.8990   -5.6090  -32.1040 C   0  0  0  0  0  0  0  0  0  0  0  0
  -28.5960   -5.0400  -31.0590 C   0  0  0  0  0  0  0  0  0  0  0  0
  -28.6940   -5.7700  -29.8860 C   0  0  0  0  0  0  0  0  0  0  0  0
  -28.0950   -7.0010  -29.8400 C   0  0  0  0  0  0  0  0  0  0  0  0
  -28.0540   -9.8750  -31.0290 C   0  0  1  0  0  0  0  0  0  0  0  0
  -28.1850  -10.8670  -29.8630 C   0  0  0  0  0  0  0  0  0  0  0  0
  -28.9700  -11.9080  -30.2670 O   0  0  0  0  0  0  0  0  0  0  0  0
  -29.5640  -11.6040  -31.4660 C   0  0  0  0  0  0  0  0  0  0  0  0
  -29.3420  -10.1140  -31.7580 C   0  0  0  0  0  0  0  0  0  0  0  0
  -28.2010   -7.7960  -28.5630 C   0  0  0  0  0  0  0  0  0  0  0  0
  -26.9530   -7.7350  -27.6600 C   0  0  0  0  0  0  0  0  0  0  0  0
  1  2  2  0
  1  3  1  0
  1  7  1  0
  2  4  1  0
  8  3  1  1
  4  5  2  0
  5  6  1  0
  6  7  2  0
  7 13  1  0
  8 12  1  0
  8  9  1  0
  9 10  1  0
 10 11  1  0
 11 12  1  0
 13 14  1  0
M  END
>  <name>  (928) 
Car Nac Nd0 Car Car Car Car C3r C3r O_a C3r C3r Cs3 Cs3

>  <indices>  (928) 
[0, 1, 2]

>  <tasks>  (928) 
probe_placing close_aromatic_ring close_aromatic_ring close_aromatic_ring close_aromatic_ring ring_built build_to_Nd0 close_aliphatic_ring close_aliphatic_ring close_aliphatic_ring close_aliphatic_ring build_orthosubstituent_to_rotated_aniline_Nd0

>  <prot_clashes>  (928) 
11

>  <NBS phar>  (928) 
0.15999999999999998

>  <NBS_non-phar>  (928) 
0.46414205006190706

>  <NBS>  (928) 
0.624142050061907

>  <source_stage>  (928) 
scored

>  <source_iter>  (928) 
11

>  <source_parent_mol>  (928) 
3

>  <source_scenario>  (928) 
1 2 5 0 0 0 0 0 4 1 3

>  <source_rank_in_scored_call>  (928) 
43

>  <source_current_task>  (928) 
no_task

>  <scenario>  (928) 
1 2 5 0 0 0 0 0 4 1

>  <protected_ring_attachments>  (928) 
3,1,0,2|1,0,2;5,6,0,2|6,0,2;9,8,7,2|8,7,2;10,11,7,2|11,7,2

>  <current_task>  (928) 
no_task

>  <rotatable_bond_torsions>  (928) 
1,0,2,7;0,2,7,8

>  <rotated_aniline_Nd0_dihedral>  (928) 
84.64

>  <rotated_aniline_Nd0_tolerance>  (928) 
30.0

>  <rotated_aniline_Nd0_context>  (928) 
nonaromatic_ring

>  <rotated_aniline_Nd0_substituent_idx>  (928) 
7

>  <rotated_aniline_Nd0_ring>  (928) 
1 3 4 5 6 0

>  <flag ortho>  (928) 


$$$$

     RDKit          3D

 14 15  0  0  0  0  0  0  0  0999 V2000
  -27.4100   -7.4320  -30.8790 C   0  0  0  0  0  0  0  0  0  0  0  0
  -27.3120   -6.7200  -32.0360 N   0  0  0  0  0  0  0  0  0  0  0  0
  -27.1080   -8.6990  -30.6700 N   0  0  0  0  0  0  0  0  0  0  0  0
  -27.8920   -5.5160  -32.1380 C   0  0  0  0  0  0  0  0  0  0  0  0
  -28.6040   -4.9210  -31.1170 C   0  0  0  0  0  0  0  0  0  0  0  0
  -28.7180   -5.6220  -29.9270 C   0  0  0  0  0  0  0  0  0  0  0  0
  -28.1210   -6.8510  -29.8430 C   0  0  0  0  0  0  0  0  0  0  0  0
  -28.0630   -9.7530  -30.9600 C   0  0  1  0  0  0  0  0  0  0  0  0
  -28.2110  -10.7170  -29.7720 C   0  0  0  0  0  0  0  0  0  0  0  0
  -28.9900  -11.7670  -30.1610 O   0  0  0  0  0  0  0  0  0  0  0  0
  -29.5670  -11.4930  -31.3750 C   0  0  0  0  0  0  0  0  0  0  0  0
  -29.3410  -10.0100  -31.7010 C   0  0  0  0  0  0  0  0  0  0  0  0
  -28.2440   -7.6140  -28.5480 C   0  0  0  0  0  0  0  0  0  0  0  0
  -26.9310   -8.1140  -27.6400 C   0  0  0  0  0  0  0  0  0  0  0  0
  1  2  2  0
  1  3  1  0
  1  7  1  0
  2  4  1  0
  8  3  1  1
  4  5  2  0
  5  6  1  0
  6  7  2  0
  7 13  1  0
  8 12  1  0
  8  9  1  0
  9 10  1  0
 10 11  1  0
 11 12  1  0
 13 14  1  0
M  END
>  <name>  (929) 
Car Nac Nd0 Car Car Car Car C3r C3r O_a C3r C3r Cs3 Cs3

>  <indices>  (929) 
[0, 1, 2]

>  <tasks>  (929) 
probe_placing close_aromatic_ring close_aromatic_ring close_aromatic_ring close_aromatic_ring ring_built build_to_Nd0 close_aliphatic_ring close_aliphatic_ring close_aliphatic_ring close_aliphatic_ring build_orthosubstituent_to_rotated_aniline_Nd0

>  <prot_clashes>  (929) 
12

>  <NBS phar>  (929) 
0.13999999999999999

>  <NBS_non-phar>  (929) 
0.4779694080352783

>  <NBS>  (929) 
0.6179694080352783

>  <source_stage>  (929) 
scored

>  <source_iter>  (929) 
11

>  <source_parent_mol>  (929) 
3

>  <source_scenario>  (929) 
1 2 5 0 0 0 0 0 4 1 3

>  <source_rank_in_scored_call>  (929) 
50

>  <source_current_task>  (929) 
no_task

>  <scenario>  (929) 
1 2 5 0 0 0 0 0 4 1

>  <protected_ring_attachments>  (929) 
3,1,0,2|1,0,2;5,6,0,2|6,0,2;9,8,7,2|8,7,2;10,11,7,2|11,7,2

>  <current_task>  (929) 
no_task

>  <rotatable_bond_torsions>  (929) 
1,0,2,7;0,2,7,8

>  <rotated_aniline_Nd0_dihedral>  (929) 
84.64

>  <rotated_aniline_Nd0_tolerance>  (929) 
30.0

>  <rotated_aniline_Nd0_context>  (929) 
nonaromatic_ring

>  <rotated_aniline_Nd0_substituent_idx>  (929) 
7

>  <rotated_aniline_Nd0_ring>  (929) 
1 3 4 5 6 0

>  <flag ortho>  (929) 


$$$$

     RDKit          3D

 14 15  0  0  0  0  0  0  0  0999 V2000
  -27.3320   -7.3200  -30.8830 C   0  0  0  0  0  0  0  0  0  0  0  0
  -27.3130   -6.6870  -32.0880 N   0  0  0  0  0  0  0  0  0  0  0  0
  -27.0290   -8.5750  -30.6140 N   0  0  0  0  0  0  0  0  0  0  0  0
  -27.8860   -5.4830  -32.2270 C   0  0  0  0  0  0  0  0  0  0  0  0
  -28.5140   -4.8120  -31.1980 C   0  0  0  0  0  0  0  0  0  0  0  0
  -28.5470   -5.4320  -29.9590 C   0  0  0  0  0  0  0  0  0  0  0  0
  -27.9580   -6.6620  -29.8380 C   0  0  0  0  0  0  0  0  0  0  0  0
  -28.0130   -9.6320  -30.7620 C   0  0  1  0  0  0  0  0  0  0  0  0
  -28.0830  -10.5130  -29.5060 C   0  0  0  0  0  0  0  0  0  0  0  0
  -28.9000  -11.5740  -29.7670 O   0  0  0  0  0  0  0  0  0  0  0  0
  -29.5620  -11.3710  -30.9510 C   0  0  0  0  0  0  0  0  0  0  0  0
  -29.3460   -9.9160  -31.3890 C   0  0  0  0  0  0  0  0  0  0  0  0
  -27.9930   -7.3380  -28.4900 C   0  0  0  0  0  0  0  0  0  0  0  0
  -29.2130   -4.7710  -28.7790 C   0  0  0  0  0  0  0  0  0  0  0  0
  1  2  2  0
  1  3  1  0
  1  7  1  0
  2  4  1  0
  8  3  1  1
  4  5  2  0
  5  6  1  0
  6  7  2  0
  6 14  1  0
  7 13  1  0
  8 12  1  0
  8  9  1  0
  9 10  1  0
 10 11  1  0
 11 12  1  0
M  END
>  <name>  (930) 
Car Nac Nd0 Car Car Car Car C3r C3r O_a C3r C3r Cs3 Cs3

>  <indices>  (930) 
[0, 1, 2]

>  <tasks>  (930) 
probe_placing close_aromatic_ring close_aromatic_ring close_aromatic_ring close_aromatic_ring ring_built build_to_Nd0 close_aliphatic_ring close_aliphatic_ring close_aliphatic_ring close_aliphatic_ring build_orthosubstituent_to_rotated_aniline_Nd0

>  <prot_clashes>  (930) 
8

>  <NBS phar>  (930) 
0.15999999999999998

>  <NBS_non-phar>  (930) 
0.39070827620370047

>  <NBS>  (930) 
0.5507082762037004

>  <source_stage>  (930) 
scored

>  <source_iter>  (930) 
11

>  <source_parent_mol>  (930) 
3

>  <source_scenario>  (930) 
1 2 5 0 0 0 0 0 4 1 3

>  <source_rank_in_scored_call>  (930) 
102

>  <source_current_task>  (930) 
no_task

>  <scenario>  (930) 
1 2 5 0 0 0 0 0 4 1

>  <protected_ring_attachments>  (930) 
3,1,0,2|1,0,2;5,6,0,2|6,0,2;9,8,7,2|8,7,2;10,11,7,2|11,7,2

>  <current_task>  (930) 
no_task

>  <rotatable_bond_torsions>  (930) 
1,0,2,7;0,2,7,8

>  <rotated_aniline_Nd0_dihedral>  (930) 
84.64

>  <rotated_aniline_Nd0_tolerance>  (930) 
30.0

>  <rotated_aniline_Nd0_context>  (930) 
nonaromatic_ring

>  <rotated_aniline_Nd0_substituent_idx>  (930) 
7

>  <rotated_aniline_Nd0_ring>  (930) 
1 3 4 5 6 0

>  <flag ortho>  (930) 


$$$$

     RDKit          3D

 13 14  0  0  0  0  0  0  0  0999 V2000
  -27.8580   -7.5550  -30.8390 C   0  0  0  0  0  0  0  0  0  0  0  0
  -27.7910   -6.9150  -32.0390 N   0  0  0  0  0  0  0  0  0  0  0  0
  -27.8660   -8.8530  -30.6020 N   0  0  0  0  0  0  0  0  0  0  0  0
  -28.0440   -5.6010  -32.1180 C   0  0  0  0  0  0  0  0  0  0  0  0
  -28.3790   -4.8180  -31.0330 C   0  0  0  0  0  0  0  0  0  0  0  0
  -28.4520   -5.4430  -29.7970 C   0  0  0  0  0  0  0  0  0  0  0  0
  -28.1900   -6.7870  -29.7370 C   0  0  0  0  0  0  0  0  0  0  0  0
  -28.9860   -9.5540  -30.6030 C   0  0  2  0  0  0  0  0  0  0  0  0
  -29.1130  -10.5750  -29.4700 C   0  0  0  0  0  0  0  0  0  0  0  0
  -28.3900  -11.6890  -29.8470 O   0  0  0  0  0  0  0  0  0  0  0  0
  -28.0640  -11.6430  -31.1720 C   0  0  0  0  0  0  0  0  0  0  0  0
  -28.9050  -10.5370  -31.7630 C   0  0  0  0  0  0  0  0  0  0  0  0
  -28.2690   -7.4670  -28.3930 C   0  0  0  0  0  0  0  0  0  0  0  0
  1  2  2  0
  1  3  1  0
  1  7  1  0
  2  4  1  0
  8  3  1  1
  4  5  2  0
  5  6  1  0
  6  7  2  0
  7 13  1  0
  8 12  1  0
  8  9  1  0
  9 10  1  0
 10 11  1  0
 11 12  1  0
M  END
>  <name>  (931) 
Car Nac Nd0 Car Car Car Car C3r C3r O_a C3r C3r Cs3

>  <indices>  (931) 
[0, 1, 2]

>  <tasks>  (931) 
probe_placing close_aromatic_ring close_aromatic_ring close_aromatic_ring close_aromatic_ring ring_built build_to_Nd0 close_aliphatic_ring close_aliphatic_ring close_aliphatic_ring close_aliphatic_ring

>  <prot_clashes>  (931) 
5

>  <NBS phar>  (931) 
0.13999999999999999

>  <NBS_non-phar>  (931) 
0.5285644164452186

>  <NBS>  (931) 
0.6685644164452186

>  <source_stage>  (931) 
scored

>  <source_iter>  (931) 
10

>  <source_parent_mol>  (931) 
2

>  <source_scenario>  (931) 
1 2 5 0 0 0 0 4 0 2

>  <source_rank_in_scored_call>  (931) 
11

>  <source_current_task>  (931) 
build_orthosubstituent_to_rotated_aniline_Nd0

>  <scenario>  (931) 
1 2 5 0 0 0 0 4 0

>  <protected_ring_attachments>  (931) 
3,1,0,2|1,0,2;5,6,0,2|6,0,2;9,8,7,2|8,7,2;10,11,7,2|11,7,2

>  <current_task>  (931) 
no_task

>  <rotatable_bond_torsions>  (931) 
1,0,2,7;0,2,7,8

>  <rotated_aniline_Nd0_dihedral>  (931) 
86.83

>  <rotated_aniline_Nd0_tolerance>  (931) 
30.0

>  <rotated_aniline_Nd0_context>  (931) 
nonaromatic_ring

>  <rotated_aniline_Nd0_substituent_idx>  (931) 
7

>  <rotated_aniline_Nd0_ring>  (931) 
1 3 4 5 6 0

>  <flag ortho>  (931) 


$$$$

     RDKit          3D

 13 14  0  0  0  0  0  0  0  0999 V2000
  -27.8590   -7.5560  -30.8360 C   0  0  0  0  0  0  0  0  0  0  0  0
  -27.7930   -6.9150  -32.0360 N   0  0  0  0  0  0  0  0  0  0  0  0
  -27.8660   -8.8540  -30.6010 N   0  0  0  0  0  0  0  0  0  0  0  0
  -28.0470   -5.6000  -32.1140 C   0  0  0  0  0  0  0  0  0  0  0  0
  -28.3810   -4.8190  -31.0280 C   0  0  0  0  0  0  0  0  0  0  0  0
  -28.4540   -5.4440  -29.7930 C   0  0  0  0  0  0  0  0  0  0  0  0
  -28.1920   -6.7890  -29.7340 C   0  0  0  0  0  0  0  0  0  0  0  0
  -28.9870   -9.5560  -30.6030 C   0  0  2  0  0  0  0  0  0  0  0  0
  -29.1130  -10.5770  -29.4700 C   0  0  0  0  0  0  0  0  0  0  0  0
  -28.3890  -11.6910  -29.8480 O   0  0  0  0  0  0  0  0  0  0  0  0
  -28.0630  -11.6430  -31.1740 C   0  0  0  0  0  0  0  0  0  0  0  0
  -28.9050  -10.5370  -31.7630 C   0  0  0  0  0  0  0  0  0  0  0  0
  -28.2640   -7.4100  -28.5090 O   0  0  0  0  0  0  0  0  0  0  0  0
  1  2  2  0
  1  3  1  0
  1  7  1  0
  2  4  1  0
  8  3  1  1
  4  5  2  0
  5  6  1  0
  6  7  2  0
  7 13  1  0
  8 12  1  0
  8  9  1  0
  9 10  1  0
 10 11  1  0
 11 12  1  0
M  CHG  1  13  -1
M  END
>  <name>  (932) 
Car Nac Nd0 Car Car Car Car C3r C3r O_a C3r C3r .=O

>  <indices>  (932) 
[0, 1, 2]

>  <tasks>  (932) 
probe_placing close_aromatic_ring close_aromatic_ring close_aromatic_ring close_aromatic_ring ring_built build_to_Nd0 close_aliphatic_ring close_aliphatic_ring close_aliphatic_ring close_aliphatic_ring

>  <prot_clashes>  (932) 
4

>  <NBS phar>  (932) 
0.13999999999999999

>  <NBS_non-phar>  (932) 
0.5078220367431641

>  <NBS>  (932) 
0.6478220367431641

>  <source_stage>  (932) 
scored

>  <source_iter>  (932) 
10

>  <source_parent_mol>  (932) 
2

>  <source_scenario>  (932) 
1 2 5 0 0 0 0 4 0 2

>  <source_rank_in_scored_call>  (932) 
17

>  <source_current_task>  (932) 
build_orthosubstituent_to_rotated_aniline_Nd0

>  <scenario>  (932) 
1 2 5 0 0 0 0 4 0

>  <protected_ring_attachments>  (932) 
3,1,0,2|1,0,2;5,6,0,2|6,0,2;9,8,7,2|8,7,2;10,11,7,2|11,7,2

>  <current_task>  (932) 
no_task

>  <rotatable_bond_torsions>  (932) 
1,0,2,7;0,2,7,8

>  <rotated_aniline_Nd0_dihedral>  (932) 
86.83

>  <rotated_aniline_Nd0_tolerance>  (932) 
30.0

>  <rotated_aniline_Nd0_context>  (932) 
nonaromatic_ring

>  <rotated_aniline_Nd0_substituent_idx>  (932) 
7

>  <rotated_aniline_Nd0_ring>  (932) 
1 3 4 5 6 0

>  <flag ortho>  (932) 


$$$$

     RDKit          3D

 13 14  0  0  0  0  0  0  0  0999 V2000
  -27.5890   -7.5980  -31.1220 C   0  0  0  0  0  0  0  0  0  0  0  0
  -27.6890   -6.7830  -32.2080 N   0  0  0  0  0  0  0  0  0  0  0  0
  -27.4270   -8.9080  -31.0950 N   0  0  0  0  0  0  0  0  0  0  0  0
  -28.1000   -5.5140  -32.0640 C   0  0  0  0  0  0  0  0  0  0  0  0
  -28.4390   -4.9530  -30.8510 C   0  0  0  0  0  0  0  0  0  0  0  0
  -28.3440   -5.7590  -29.7270 C   0  0  0  0  0  0  0  0  0  0  0  0
  -27.9260   -7.0520  -29.8950 C   0  0  0  0  0  0  0  0  0  0  0  0
  -28.6310   -9.7470  -31.1510 C   0  0  1  0  0  0  0  0  0  0  0  0
  -28.1840  -11.0900  -31.7150 C   0  0  0  0  0  0  0  0  0  0  0  0
  -29.1820  -12.0160  -31.3870 O   0  0  0  0  0  0  0  0  0  0  0  0
  -30.0500  -11.4860  -30.4560 C   0  0  0  0  0  0  0  0  0  0  0  0
  -29.4360  -10.2520  -29.9390 C   0  0  0  0  0  0  0  0  0  0  0  0
  -27.8350   -7.8540  -28.7820 O   0  0  0  0  0  0  0  0  0  0  0  0
  1  2  2  0
  1  3  1  0
  1  7  1  0
  2  4  1  0
  8  3  1  1
  4  5  2  0
  5  6  1  0
  6  7  2  0
  7 13  1  0
  8  9  1  0
  8 12  1  0
  9 10  1  0
 10 11  1  0
 11 12  1  0
M  CHG  1  13  -1
M  END
>  <name>  (933) 
Car Nac Nd0 Car Car Car Car C3r C3r O_a C3r C3r .=O

>  <indices>  (933) 
[0, 1, 2]

>  <tasks>  (933) 
probe_placing close_aromatic_ring close_aromatic_ring close_aromatic_ring close_aromatic_ring ring_built build_to_Nd0 close_aliphatic_ring close_aliphatic_ring close_aliphatic_ring close_aliphatic_ring

>  <prot_clashes>  (933) 
2

>  <NBS phar>  (933) 
0.22000000000000003

>  <NBS_non-phar>  (933) 
0.7052240371704102

>  <NBS>  (933) 
0.9252240371704101

>  <source_stage>  (933) 
scored

>  <source_iter>  (933) 
10

>  <source_parent_mol>  (933) 
0

>  <source_scenario>  (933) 
1 2 5 0 0 0 1 0 2 0

>  <source_rank_in_scored_call>  (933) 
14

>  <source_current_task>  (933) 
build_orthosubstituent_to_rotated_aniline_Nd0

>  <scenario>  (933) 
1 2 5 0 0 0 1 0 2

>  <protected_ring_attachments>  (933) 
3,1,0,2|1,0,2;5,6,0,2|6,0,2;9,8,7,2|8,7,2;10,11,7,2|11,7,2

>  <current_task>  (933) 
no_task

>  <rotatable_bond_torsions>  (933) 
1,0,2,7;0,2,7,8

>  <rotated_aniline_Nd0_dihedral>  (933) 
86.84

>  <rotated_aniline_Nd0_tolerance>  (933) 
30.0

>  <rotated_aniline_Nd0_context>  (933) 
nonaromatic_ring

>  <rotated_aniline_Nd0_substituent_idx>  (933) 
7

>  <rotated_aniline_Nd0_ring>  (933) 
1 3 4 5 6 0

>  <reason_to_skip>  (933) 
global_duplicate

>  <global_duplicate_rmsd>  (933) 
0.0

>  <global_duplicate_old_source_iter>  (933) 
9

>  <global_duplicate_old_source_parent_mol>  (933) 
2

>  <global_duplicate_old_index>  (933) 
NA

>  <global_duplicate_rotatable_bond_torsions>  (933) 
1,0,2,7;0,2,7,8

>  <global_duplicate_old_rotatable_bond_torsions>  (933) 
1,0,2,7;0,2,7,8

>  <global_duplicate_last_growth_torsion>  (933) 
(8, 9, 10, 11)

>  <global_duplicate_protected_ring_attachments>  (933) 
3,1,0,2|1,0,2;5,6,0,2|6,0,2;9,8,7,2|8,7,2;10,11,7,2|11,7,2

>  <global_duplicate_old_last_growth_torsion>  (933) 
(8, 9, 10, 11)

>  <global_duplicate_old_protected_ring_attachments>  (933) 
3,1,0,2|1,0,2;5,6,0,2|6,0,2;9,8,7,2|8,7,2;10,11,7,2|11,7,2

>  <flag ortho>  (933) 


$$$$

     RDKit          3D

 13 14  0  0  0  0  0  0  0  0999 V2000
  -27.7010   -7.6000  -31.2110 C   0  0  0  0  0  0  0  0  0  0  0  0
  -27.6880   -6.7400  -32.2670 N   0  0  0  0  0  0  0  0  0  0  0  0
  -27.6030   -8.9160  -31.2260 N   0  0  0  0  0  0  0  0  0  0  0  0
  -28.0480   -5.4590  -32.0990 C   0  0  0  0  0  0  0  0  0  0  0  0
  -28.4430   -4.9270  -30.8890 C   0  0  0  0  0  0  0  0  0  0  0  0
  -28.4650   -5.7810  -29.7960 C   0  0  0  0  0  0  0  0  0  0  0  0
  -28.0950   -7.0840  -29.9880 C   0  0  0  0  0  0  0  0  0  0  0  0
  -28.8990   -9.7110  -31.4490 C   0  0  1  0  0  0  0  0  0  0  0  0
  -28.2030  -11.0340  -31.7600 C   0  0  0  0  0  0  0  0  0  0  0  0
  -28.8730  -12.0200  -31.0410 O   0  0  0  0  0  0  0  0  0  0  0  0
  -29.7120  -11.4580  -30.1010 C   0  0  0  0  0  0  0  0  0  0  0  0
  -29.3410  -10.0250  -30.0190 C   0  0  0  0  0  0  0  0  0  0  0  0
  -28.1150   -7.9300  -28.9040 O   0  0  0  0  0  0  0  0  0  0  0  0
  1  2  2  0
  1  3  1  0
  1  7  1  0
  2  4  1  0
  8  3  1  1
  4  5  2  0
  5  6  1  0
  6  7  2  0
  7 13  1  0
  8  9  1  0
  8 12  1  0
  9 10  1  0
 10 11  1  0
 11 12  1  0
M  CHG  1  13  -1
M  END
>  <name>  (934) 
Car Nac Nd0 Car Car Car Car C3r C3r O_a C3r C3r .=O

>  <indices>  (934) 
[0, 1, 2]

>  <tasks>  (934) 
probe_placing close_aromatic_ring close_aromatic_ring close_aromatic_ring close_aromatic_ring ring_built build_to_Nd0 close_aliphatic_ring close_aliphatic_ring close_aliphatic_ring close_aliphatic_ring

>  <prot_clashes>  (934) 
4

>  <NBS phar>  (934) 
0.24000000000000005

>  <NBS_non-phar>  (934) 
0.636042228111854

>  <NBS>  (934) 
0.8760422281118541

>  <source_stage>  (934) 
scored

>  <source_iter>  (934) 
10

>  <source_parent_mol>  (934) 
0

>  <source_scenario>  (934) 
1 2 5 0 0 0 1 2 4 0

>  <source_rank_in_scored_call>  (934) 
15

>  <source_current_task>  (934) 
build_orthosubstituent_to_rotated_aniline_Nd0

>  <scenario>  (934) 
1 2 5 0 0 0 1 2 4

>  <protected_ring_attachments>  (934) 
3,1,0,2|1,0,2;5,6,0,2|6,0,2;9,8,7,2|8,7,2;10,11,7,2|11,7,2

>  <current_task>  (934) 
no_task

>  <rotatable_bond_torsions>  (934) 
1,0,2,7;0,2,7,8

>  <rotated_aniline_Nd0_dihedral>  (934) 
85.06

>  <rotated_aniline_Nd0_tolerance>  (934) 
30.0

>  <rotated_aniline_Nd0_context>  (934) 
nonaromatic_ring

>  <rotated_aniline_Nd0_substituent_idx>  (934) 
7

>  <rotated_aniline_Nd0_ring>  (934) 
1 3 4 5 6 0

>  <flag ortho>  (934) 


$$$$

     RDKit          3D

 15 16  0  0  0  0  0  0  0  0999 V2000
  -27.4730   -7.4430  -30.4670 C   0  0  0  0  0  0  0  0  0  0  0  0
  -27.1090   -6.9810  -31.6940 N   0  0  0  0  0  0  0  0  0  0  0  0
  -27.3000   -8.6490  -29.9610 N   0  0  0  0  0  0  0  0  0  0  0  0
  -27.5780   -5.8080  -32.1410 C   0  0  0  0  0  0  0  0  0  0  0  0
  -28.4350   -5.0030  -31.4220 C   0  0  0  0  0  0  0  0  0  0  0  0
  -28.8260   -5.4470  -30.1680 C   0  0  0  0  0  0  0  0  0  0  0  0
  -28.3370   -6.6470  -29.7300 C   0  0  0  0  0  0  0  0  0  0  0  0
  -28.1770   -9.6780  -30.2640 C   0  0  1  0  0  0  0  0  0  0  0  0
  -28.8150   -9.6500  -31.6210 C   0  0  0  0  0  0  0  0  0  0  0  0
  -28.5640  -10.8830  -32.2700 N   0  0  0  0  0  0  0  0  0  0  0  0
  -28.0510  -11.8020  -31.3060 C   0  0  0  0  0  0  0  0  0  0  0  0
  -28.1960  -11.1730  -29.9530 C   0  0  0  0  0  0  0  0  0  0  0  0
  -28.7590   -7.1320  -28.3650 C   0  0  0  0  0  0  0  0  0  0  0  0
  -29.4180   -8.8070  -32.0530 O   0  0  0  0  0  0  0  0  0  0  0  0
  -27.3500  -12.7190  -31.3860 O   0  0  0  0  0  0  0  0  0  0  0  0
  1  2  2  0
  1  3  1  0
  1  7  1  0
  2  4  1  0
  8  3  1  6
  4  5  2  0
  5  6  1  0
  6  7  2  0
  7 13  1  0
  8  9  1  0
  8 12  1  0
  9 10  1  0
  9 14  2  0
 10 11  1  0
 11 15  2  0
 11 12  1  0
M  END
>  <name>  (935) 
Car Nac Nd0 Car Car Car Car C3r C2r Nd0 C2r C3r Cs3 .=O .=O

>  <indices>  (935) 
[0, 1, 2]

>  <tasks>  (935) 
probe_placing close_aromatic_ring close_aromatic_ring close_aromatic_ring close_aromatic_ring ring_built build_to_Nd0 close_aliphatic_ring close_aliphatic_ring close_aliphatic_ring close_aliphatic_ring build_orthosubstituent_to_rotated_aniline_Nd0 build_DB_to_Cs2

>  <prot_clashes>  (935) 
4

>  <NBS phar>  (935) 
0.22000000000000003

>  <NBS_non-phar>  (935) 
0.47877251307169594

>  <NBS>  (935) 
0.698772513071696

>  <source_stage>  (935) 
scored

>  <source_iter>  (935) 
12

>  <source_parent_mol>  (935) 
0

>  <source_scenario>  (935) 
1 2 5 0 0 0 7 7 1 1 2 0

>  <source_rank_in_scored_call>  (935) 
1

>  <source_current_task>  (935) 
build_DB_to_Cs2

>  <scenario>  (935) 
1 2 5 0 0 0 7 7 1 1 2

>  <protected_ring_attachments>  (935) 
3,1,0,2|1,0,2;5,6,0,2|6,0,2;9,8,7,2|8,7,2;10,11,7,2|11,7,2

>  <current_task>  (935) 
no_task

>  <rotatable_bond_torsions>  (935) 
1,0,2,7;0,2,7,8

>  <rotated_aniline_Nd0_dihedral>  (935) 
81.91

>  <rotated_aniline_Nd0_tolerance>  (935) 
30.0

>  <rotated_aniline_Nd0_context>  (935) 
nonaromatic_ring

>  <rotated_aniline_Nd0_substituent_idx>  (935) 
7

>  <rotated_aniline_Nd0_ring>  (935) 
1 3 4 5 6 0

>  <flag ortho>  (935) 


$$$$

     RDKit          3D

 15 16  0  0  0  0  0  0  0  0999 V2000
  -27.4810   -7.4120  -30.4330 C   0  0  0  0  0  0  0  0  0  0  0  0
  -27.0930   -6.9800  -31.6630 N   0  0  0  0  0  0  0  0  0  0  0  0
  -27.3240   -8.6080  -29.8970 N   0  0  0  0  0  0  0  0  0  0  0  0
  -27.5480   -5.8150  -32.1450 C   0  0  0  0  0  0  0  0  0  0  0  0
  -28.4150   -4.9900  -31.4600 C   0  0  0  0  0  0  0  0  0  0  0  0
  -28.8300   -5.4050  -30.2040 C   0  0  0  0  0  0  0  0  0  0  0  0
  -28.3550   -6.5960  -29.7300 C   0  0  0  0  0  0  0  0  0  0  0  0
  -28.1990   -9.6400  -30.1920 C   0  0  1  0  0  0  0  0  0  0  0  0
  -28.8130   -9.6390  -31.5610 C   0  0  0  0  0  0  0  0  0  0  0  0
  -28.5570  -10.8870  -32.1780 N   0  0  0  0  0  0  0  0  0  0  0  0
  -28.0650  -11.7870  -31.1850 C   0  0  0  0  0  0  0  0  0  0  0  0
  -28.2320  -11.1270  -29.8480 C   0  0  0  0  0  0  0  0  0  0  0  0
  -28.8040   -7.0490  -28.3630 C   0  0  0  0  0  0  0  0  0  0  0  0
  -29.4040   -8.8030  -32.0220 O   0  0  0  0  0  0  0  0  0  0  0  0
  -27.6170  -12.7850  -31.3890 O   0  0  0  0  0  0  0  0  0  0  0  0
  1  2  2  0
  1  3  1  0
  1  7  1  0
  2  4  1  0
  8  3  1  6
  4  5  2  0
  5  6  1  0
  6  7  2  0
  7 13  1  0
  8  9  1  0
  8 12  1  0
  9 10  1  0
  9 14  2  0
 10 11  1  0
 11 15  2  0
 11 12  1  0
M  END
>  <name>  (936) 
Car Nac Nd0 Car Car Car Car C3r C2r Nd0 C2r C3r Cs3 .=O .=O

>  <indices>  (936) 
[0, 1, 2]

>  <tasks>  (936) 
probe_placing close_aromatic_ring close_aromatic_ring close_aromatic_ring close_aromatic_ring ring_built build_to_Nd0 close_aliphatic_ring close_aliphatic_ring close_aliphatic_ring close_aliphatic_ring build_orthosubstituent_to_rotated_aniline_Nd0 build_DB_to_Cs2

>  <prot_clashes>  (936) 
4

>  <NBS phar>  (936) 
0.12

>  <NBS_non-phar>  (936) 
0.503130308787028

>  <NBS>  (936) 
0.623130308787028

>  <source_stage>  (936) 
scored

>  <source_iter>  (936) 
12

>  <source_parent_mol>  (936) 
0

>  <source_scenario>  (936) 
1 2 5 0 0 0 7 7 1 1 2 0

>  <source_rank_in_scored_call>  (936) 
5

>  <source_current_task>  (936) 
build_DB_to_Cs2

>  <scenario>  (936) 
1 2 5 0 0 0 7 7 1 1 2

>  <protected_ring_attachments>  (936) 
3,1,0,2|1,0,2;5,6,0,2|6,0,2;9,8,7,2|8,7,2;10,11,7,2|11,7,2

>  <current_task>  (936) 
no_task

>  <rotatable_bond_torsions>  (936) 
1,0,2,7;0,2,7,8

>  <rotated_aniline_Nd0_dihedral>  (936) 
81.91

>  <rotated_aniline_Nd0_tolerance>  (936) 
30.0

>  <rotated_aniline_Nd0_context>  (936) 
nonaromatic_ring

>  <rotated_aniline_Nd0_substituent_idx>  (936) 
7

>  <rotated_aniline_Nd0_ring>  (936) 
1 3 4 5 6 0

>  <flag ortho>  (936) 


$$$$

     RDKit          3D

 13 14  0  0  0  0  0  0  0  0999 V2000
  -27.3890   -7.6200  -31.0360 C   0  0  0  0  0  0  0  0  0  0  0  0
  -27.6820   -6.8890  -32.1450 N   0  0  0  0  0  0  0  0  0  0  0  0
  -26.9440   -8.8600  -30.9670 N   0  0  0  0  0  0  0  0  0  0  0  0
  -28.3580   -5.7350  -32.0370 C   0  0  0  0  0  0  0  0  0  0  0  0
  -28.7950   -5.2170  -30.8370 C   0  0  0  0  0  0  0  0  0  0  0  0
  -28.5100   -5.9410  -29.6880 C   0  0  0  0  0  0  0  0  0  0  0  0
  -27.8210   -7.1160  -29.8200 C   0  0  0  0  0  0  0  0  0  0  0  0
  -27.8320   -9.9310  -31.3220 C   0  0  2  0  0  0  0  0  0  0  0  0
  -29.2870   -9.6200  -31.3840 C   0  0  0  0  0  0  0  0  0  0  0  0
  -29.9180  -10.7330  -31.9320 O   0  0  0  0  0  0  0  0  0  0  0  0
  -29.0050  -11.7580  -31.9580 C   0  0  0  0  0  0  0  0  0  0  0  0
  -27.8730  -11.3760  -31.1280 C   0  0  0  0  0  0  0  0  0  0  0  0
  -27.5130   -7.9060  -28.5710 C   0  0  0  0  0  0  0  0  0  0  0  0
  1  2  2  0
  1  3  1  0
  1  7  1  0
  2  4  1  0
  8  3  1  1
  4  5  2  0
  5  6  1  0
  6  7  2  0
  7 13  1  0
  8  9  1  0
  8 12  1  0
  9 10  1  0
 10 11  1  0
 11 12  1  0
M  END
>  <name>  (937) 
Car Nac Nd0 Car Car Car Car C3r C3r O_a C3r C3r Cs3

>  <indices>  (937) 
[0, 1, 2]

>  <tasks>  (937) 
probe_placing close_aromatic_ring close_aromatic_ring close_aromatic_ring close_aromatic_ring ring_built build_to_Nd0 close_aliphatic_ring close_aliphatic_ring close_aliphatic_ring close_aliphatic_ring

>  <prot_clashes>  (937) 
5

>  <NBS phar>  (937) 
0.32

>  <NBS_non-phar>  (937) 
0.6631610576923077

>  <NBS>  (937) 
0.9831610576923078

>  <source_stage>  (937) 
scored

>  <source_iter>  (937) 
10

>  <source_parent_mol>  (937) 
2

>  <source_scenario>  (937) 
1 2 5 0 0 0 8 0 0 2

>  <source_rank_in_scored_call>  (937) 
3

>  <source_current_task>  (937) 
build_orthosubstituent_to_rotated_aniline_Nd0

>  <scenario>  (937) 
1 2 5 0 0 0 8 0 0

>  <protected_ring_attachments>  (937) 
3,1,0,2|1,0,2;5,6,0,2|6,0,2;9,8,7,2|8,7,2;10,11,7,2|11,7,2

>  <current_task>  (937) 
no_task

>  <rotatable_bond_torsions>  (937) 
1,0,2,7;0,2,7,8

>  <rotated_aniline_Nd0_dihedral>  (937) 
70.39

>  <rotated_aniline_Nd0_tolerance>  (937) 
30.0

>  <rotated_aniline_Nd0_context>  (937) 
nonaromatic_ring

>  <rotated_aniline_Nd0_substituent_idx>  (937) 
7

>  <rotated_aniline_Nd0_ring>  (937) 
1 3 4 5 6 0

>  <flag ortho>  (937) 


$$$$

     RDKit          3D

 13 14  0  0  0  0  0  0  0  0999 V2000
  -27.3830   -7.6260  -31.0430 C   0  0  0  0  0  0  0  0  0  0  0  0
  -27.6880   -6.8870  -32.1440 N   0  0  0  0  0  0  0  0  0  0  0  0
  -26.9370   -8.8670  -30.9870 N   0  0  0  0  0  0  0  0  0  0  0  0
  -28.3640   -5.7350  -32.0200 C   0  0  0  0  0  0  0  0  0  0  0  0
  -28.7880   -5.2250  -30.8110 C   0  0  0  0  0  0  0  0  0  0  0  0
  -28.4900   -5.9580  -29.6710 C   0  0  0  0  0  0  0  0  0  0  0  0
  -27.8010   -7.1310  -29.8190 C   0  0  0  0  0  0  0  0  0  0  0  0
  -27.8280   -9.9350  -31.3410 C   0  0  2  0  0  0  0  0  0  0  0  0
  -29.2840   -9.6250  -31.3840 C   0  0  0  0  0  0  0  0  0  0  0  0
  -29.9200  -10.7350  -31.9330 O   0  0  0  0  0  0  0  0  0  0  0  0
  -29.0060  -11.7590  -31.9760 C   0  0  0  0  0  0  0  0  0  0  0  0
  -27.8650  -11.3820  -31.1560 C   0  0  0  0  0  0  0  0  0  0  0  0
  -27.5080   -7.8590  -28.6890 O   0  0  0  0  0  0  0  0  0  0  0  0
  1  2  2  0
  1  3  1  0
  1  7  1  0
  2  4  1  0
  8  3  1  1
  4  5  2  0
  5  6  1  0
  6  7  2  0
  7 13  1  0
  8  9  1  0
  8 12  1  0
  9 10  1  0
 10 11  1  0
 11 12  1  0
M  CHG  1  13  -1
M  END
>  <name>  (938) 
Car Nac Nd0 Car Car Car Car C3r C3r O_a C3r C3r .=O

>  <indices>  (938) 
[0, 1, 2]

>  <tasks>  (938) 
probe_placing close_aromatic_ring close_aromatic_ring close_aromatic_ring close_aromatic_ring ring_built build_to_Nd0 close_aliphatic_ring close_aliphatic_ring close_aliphatic_ring close_aliphatic_ring

>  <prot_clashes>  (938) 
4

>  <NBS phar>  (938) 
0.32

>  <NBS_non-phar>  (938) 
0.6114276005671575

>  <NBS>  (938) 
0.9314276005671576

>  <source_stage>  (938) 
scored

>  <source_iter>  (938) 
10

>  <source_parent_mol>  (938) 
2

>  <source_scenario>  (938) 
1 2 5 0 0 0 8 0 0 2

>  <source_rank_in_scored_call>  (938) 
8

>  <source_current_task>  (938) 
build_orthosubstituent_to_rotated_aniline_Nd0

>  <scenario>  (938) 
1 2 5 0 0 0 8 0 0

>  <protected_ring_attachments>  (938) 
3,1,0,2|1,0,2;5,6,0,2|6,0,2;9,8,7,2|8,7,2;10,11,7,2|11,7,2

>  <current_task>  (938) 
no_task

>  <rotatable_bond_torsions>  (938) 
1,0,2,7;0,2,7,8

>  <rotated_aniline_Nd0_dihedral>  (938) 
70.39

>  <rotated_aniline_Nd0_tolerance>  (938) 
30.0

>  <rotated_aniline_Nd0_context>  (938) 
nonaromatic_ring

>  <rotated_aniline_Nd0_substituent_idx>  (938) 
7

>  <rotated_aniline_Nd0_ring>  (938) 
1 3 4 5 6 0

>  <flag ortho>  (938) 


$$$$

     RDKit          3D

 13 14  0  0  0  0  0  0  0  0999 V2000
  -27.3870   -7.6400  -30.9230 C   0  0  0  0  0  0  0  0  0  0  0  0
  -27.5010   -6.9540  -32.0940 N   0  0  0  0  0  0  0  0  0  0  0  0
  -26.9560   -8.8720  -30.7340 N   0  0  0  0  0  0  0  0  0  0  0  0
  -28.1890   -5.8040  -32.1410 C   0  0  0  0  0  0  0  0  0  0  0  0
  -28.8130   -5.2420  -31.0480 C   0  0  0  0  0  0  0  0  0  0  0  0
  -28.7140   -5.9180  -29.8400 C   0  0  0  0  0  0  0  0  0  0  0  0
  -28.0070   -7.0910  -29.8130 C   0  0  0  0  0  0  0  0  0  0  0  0
  -27.8170  -10.0900  -31.0040 C   0  0  2  0  0  0  0  0  0  0  0  0
  -29.0790   -9.6470  -31.7630 C   0  0  0  0  0  0  0  0  0  0  0  0
  -29.9440  -10.6750  -31.7630 O   0  0  0  0  0  0  0  0  0  0  0  0
  -29.5220  -11.6520  -30.9560 C   0  0  0  0  0  0  0  0  0  0  0  0
  -28.3930  -11.1280  -30.1150 C   0  0  0  0  0  0  0  0  0  0  0  0
  -27.8990   -7.8270  -28.5010 C   0  0  0  0  0  0  0  0  0  0  0  0
  1  2  2  0
  1  3  1  0
  1  7  1  0
  2  4  1  0
  8  3  1  1
  4  5  2  0
  5  6  1  0
  6  7  2  0
  7 13  1  0
  8  9  1  0
  8 12  1  0
  9 10  1  0
 10 11  1  0
 11 12  1  0
M  END
>  <name>  (939) 
Car Nac Nd0 Car Car Car Car C3r C3r O_a C3r C3r Cs3

>  <indices>  (939) 
[0, 1, 2]

>  <tasks>  (939) 
probe_placing close_aromatic_ring close_aromatic_ring close_aromatic_ring close_aromatic_ring ring_built build_to_Nd0 close_aliphatic_ring close_aliphatic_ring close_aliphatic_ring close_aliphatic_ring

>  <prot_clashes>  (939) 
7

>  <NBS phar>  (939) 
0.2

>  <NBS_non-phar>  (939) 
0.5219866679264948

>  <NBS>  (939) 
0.7219866679264948

>  <source_stage>  (939) 
scored

>  <source_iter>  (939) 
10

>  <source_parent_mol>  (939) 
2

>  <source_scenario>  (939) 
1 2 5 0 0 0 8 0 2 2

>  <source_rank_in_scored_call>  (939) 
1

>  <source_current_task>  (939) 
build_orthosubstituent_to_rotated_aniline_Nd0

>  <scenario>  (939) 
1 2 5 0 0 0 8 0 2

>  <protected_ring_attachments>  (939) 
3,1,0,2|1,0,2;5,6,0,2|6,0,2;9,8,7,2|8,7,2;10,11,7,2|11,7,2

>  <current_task>  (939) 
no_task

>  <rotatable_bond_torsions>  (939) 
1,0,2,7;0,2,7,8

>  <rotated_aniline_Nd0_dihedral>  (939) 
78.56

>  <rotated_aniline_Nd0_tolerance>  (939) 
30.0

>  <rotated_aniline_Nd0_context>  (939) 
nonaromatic_ring

>  <rotated_aniline_Nd0_substituent_idx>  (939) 
7

>  <rotated_aniline_Nd0_ring>  (939) 
1 3 4 5 6 0

>  <flag ortho>  (939) 


$$$$

     RDKit          3D

 13 14  0  0  0  0  0  0  0  0999 V2000
  -27.3860   -7.6410  -30.9230 C   0  0  0  0  0  0  0  0  0  0  0  0
  -27.5020   -6.9540  -32.0940 N   0  0  0  0  0  0  0  0  0  0  0  0
  -26.9550   -8.8730  -30.7360 N   0  0  0  0  0  0  0  0  0  0  0  0
  -28.1900   -5.8040  -32.1380 C   0  0  0  0  0  0  0  0  0  0  0  0
  -28.8130   -5.2430  -31.0430 C   0  0  0  0  0  0  0  0  0  0  0  0
  -28.7120   -5.9210  -29.8360 C   0  0  0  0  0  0  0  0  0  0  0  0
  -28.0050   -7.0930  -29.8120 C   0  0  0  0  0  0  0  0  0  0  0  0
  -27.8160  -10.0910  -31.0060 C   0  0  2  0  0  0  0  0  0  0  0  0
  -29.0800   -9.6480  -31.7630 C   0  0  0  0  0  0  0  0  0  0  0  0
  -29.9440  -10.6750  -31.7630 O   0  0  0  0  0  0  0  0  0  0  0  0
  -29.5210  -11.6530  -30.9580 C   0  0  0  0  0  0  0  0  0  0  0  0
  -28.3900  -11.1310  -30.1180 C   0  0  0  0  0  0  0  0  0  0  0  0
  -27.9050   -7.7650  -28.6160 O   0  0  0  0  0  0  0  0  0  0  0  0
  1  2  2  0
  1  3  1  0
  1  7  1  0
  2  4  1  0
  8  3  1  1
  4  5  2  0
  5  6  1  0
  6  7  2  0
  7 13  1  0
  8  9  1  0
  8 12  1  0
  9 10  1  0
 10 11  1  0
 11 12  1  0
M  CHG  1  13  -1
M  END
>  <name>  (940) 
Car Nac Nd0 Car Car Car Car C3r C3r O_a C3r C3r .=O

>  <indices>  (940) 
[0, 1, 2]

>  <tasks>  (940) 
probe_placing close_aromatic_ring close_aromatic_ring close_aromatic_ring close_aromatic_ring ring_built build_to_Nd0 close_aliphatic_ring close_aliphatic_ring close_aliphatic_ring close_aliphatic_ring

>  <prot_clashes>  (940) 
6

>  <NBS phar>  (940) 
0.2

>  <NBS_non-phar>  (940) 
0.45886413867657

>  <NBS>  (940) 
0.65886413867657

>  <source_stage>  (940) 
scored

>  <source_iter>  (940) 
10

>  <source_parent_mol>  (940) 
2

>  <source_scenario>  (940) 
1 2 5 0 0 0 8 0 2 2

>  <source_rank_in_scored_call>  (940) 
18

>  <source_current_task>  (940) 
build_orthosubstituent_to_rotated_aniline_Nd0

>  <scenario>  (940) 
1 2 5 0 0 0 8 0 2

>  <protected_ring_attachments>  (940) 
3,1,0,2|1,0,2;5,6,0,2|6,0,2;9,8,7,2|8,7,2;10,11,7,2|11,7,2

>  <current_task>  (940) 
no_task

>  <rotatable_bond_torsions>  (940) 
1,0,2,7;0,2,7,8

>  <rotated_aniline_Nd0_dihedral>  (940) 
78.56

>  <rotated_aniline_Nd0_tolerance>  (940) 
30.0

>  <rotated_aniline_Nd0_context>  (940) 
nonaromatic_ring

>  <rotated_aniline_Nd0_substituent_idx>  (940) 
7

>  <rotated_aniline_Nd0_ring>  (940) 
1 3 4 5 6 0

>  <flag ortho>  (940) 


$$$$

     RDKit          3D

 13 14  0  0  0  0  0  0  0  0999 V2000
  -27.4090   -7.6240  -30.9230 C   0  0  0  0  0  0  0  0  0  0  0  0
  -27.6900   -7.0360  -32.1170 N   0  0  0  0  0  0  0  0  0  0  0  0
  -27.0680   -8.8780  -30.6870 N   0  0  0  0  0  0  0  0  0  0  0  0
  -28.2600   -5.8230  -32.1550 C   0  0  0  0  0  0  0  0  0  0  0  0
  -28.5920   -5.0990  -31.0300 C   0  0  0  0  0  0  0  0  0  0  0  0
  -28.3160   -5.6740  -29.7980 C   0  0  0  0  0  0  0  0  0  0  0  0
  -27.7370   -6.9130  -29.7800 C   0  0  0  0  0  0  0  0  0  0  0  0
  -28.0870   -9.7870  -30.5600 C   0  0  1  0  0  0  0  0  0  0  0  0
  -29.3730   -9.4950  -31.2680 C   0  0  0  0  0  0  0  0  0  0  0  0
  -29.6510  -10.5200  -32.1380 O   0  0  0  0  0  0  0  0  0  0  0  0
  -28.8580  -11.6150  -31.8530 C   0  0  0  0  0  0  0  0  0  0  0  0
  -27.6880  -11.1510  -31.0260 C   0  0  0  0  0  0  0  0  0  0  0  0
  -27.4380   -7.5410  -28.4410 C   0  0  0  0  0  0  0  0  0  0  0  0
  1  2  2  0
  1  3  1  0
  1  7  1  0
  2  4  1  0
  8  3  1  6
  4  5  2  0
  5  6  1  0
  6  7  2  0
  7 13  1  0
  8  9  1  0
  8 12  1  0
  9 10  1  0
 10 11  1  0
 11 12  1  0
M  END
>  <name>  (941) 
Car Nac Nd0 Car Car Car Car C3r C3r O_a C3r C3r Cs3

>  <indices>  (941) 
[0, 1, 2]

>  <tasks>  (941) 
probe_placing close_aromatic_ring close_aromatic_ring close_aromatic_ring close_aromatic_ring ring_built build_to_Nd0 close_aliphatic_ring close_aliphatic_ring close_aliphatic_ring close_aliphatic_ring

>  <prot_clashes>  (941) 
9

>  <NBS phar>  (941) 
0.24000000000000005

>  <NBS_non-phar>  (941) 
0.5650685750521146

>  <NBS>  (941) 
0.8050685750521147

>  <source_stage>  (941) 
scored

>  <source_iter>  (941) 
10

>  <source_parent_mol>  (941) 
1

>  <source_scenario>  (941) 
1 2 5 0 0 0 8 6 1 1

>  <source_rank_in_scored_call>  (941) 
2

>  <source_current_task>  (941) 
build_orthosubstituent_to_rotated_aniline_Nd0

>  <scenario>  (941) 
1 2 5 0 0 0 8 6 1

>  <protected_ring_attachments>  (941) 
3,1,0,2|1,0,2;5,6,0,2|6,0,2;9,8,7,2|8,7,2;10,11,7,2|11,7,2

>  <current_task>  (941) 
no_task

>  <rotatable_bond_torsions>  (941) 
1,0,2,7;0,2,7,8

>  <rotated_aniline_Nd0_dihedral>  (941) 
84.48

>  <rotated_aniline_Nd0_tolerance>  (941) 
30.0

>  <rotated_aniline_Nd0_context>  (941) 
nonaromatic_ring

>  <rotated_aniline_Nd0_substituent_idx>  (941) 
7

>  <rotated_aniline_Nd0_ring>  (941) 
1 3 4 5 6 0

>  <flag ortho>  (941) 


$$$$

     RDKit          3D

 13 14  0  0  0  0  0  0  0  0999 V2000
  -27.4040   -7.6230  -30.9250 C   0  0  0  0  0  0  0  0  0  0  0  0
  -27.6860   -7.0330  -32.1180 N   0  0  0  0  0  0  0  0  0  0  0  0
  -27.0650   -8.8770  -30.6910 N   0  0  0  0  0  0  0  0  0  0  0  0
  -28.2540   -5.8190  -32.1540 C   0  0  0  0  0  0  0  0  0  0  0  0
  -28.5830   -5.0960  -31.0270 C   0  0  0  0  0  0  0  0  0  0  0  0
  -28.3060   -5.6720  -29.7960 C   0  0  0  0  0  0  0  0  0  0  0  0
  -27.7290   -6.9120  -29.7810 C   0  0  0  0  0  0  0  0  0  0  0  0
  -28.0860   -9.7850  -30.5630 C   0  0  1  0  0  0  0  0  0  0  0  0
  -29.3720   -9.4900  -31.2690 C   0  0  0  0  0  0  0  0  0  0  0  0
  -29.6530  -10.5130  -32.1390 O   0  0  0  0  0  0  0  0  0  0  0  0
  -28.8610  -11.6100  -31.8570 C   0  0  0  0  0  0  0  0  0  0  0  0
  -27.6890  -11.1490  -31.0310 C   0  0  0  0  0  0  0  0  0  0  0  0
  -27.4550   -7.4860  -28.5620 O   0  0  0  0  0  0  0  0  0  0  0  0
  1  2  2  0
  1  3  1  0
  1  7  1  0
  2  4  1  0
  8  3  1  6
  4  5  2  0
  5  6  1  0
  6  7  2  0
  7 13  1  0
  8  9  1  0
  8 12  1  0
  9 10  1  0
 10 11  1  0
 11 12  1  0
M  CHG  1  13  -1
M  END
>  <name>  (942) 
Car Nac Nd0 Car Car Car Car C3r C3r O_a C3r C3r .=O

>  <indices>  (942) 
[0, 1, 2]

>  <tasks>  (942) 
probe_placing close_aromatic_ring close_aromatic_ring close_aromatic_ring close_aromatic_ring ring_built build_to_Nd0 close_aliphatic_ring close_aliphatic_ring close_aliphatic_ring close_aliphatic_ring

>  <prot_clashes>  (942) 
7

>  <NBS phar>  (942) 
0.22000000000000003

>  <NBS_non-phar>  (942) 
0.5550438073965219

>  <NBS>  (942) 
0.775043807396522

>  <source_stage>  (942) 
scored

>  <source_iter>  (942) 
10

>  <source_parent_mol>  (942) 
1

>  <source_scenario>  (942) 
1 2 5 0 0 0 8 6 1 1

>  <source_rank_in_scored_call>  (942) 
6

>  <source_current_task>  (942) 
build_orthosubstituent_to_rotated_aniline_Nd0

>  <scenario>  (942) 
1 2 5 0 0 0 8 6 1

>  <protected_ring_attachments>  (942) 
3,1,0,2|1,0,2;5,6,0,2|6,0,2;9,8,7,2|8,7,2;10,11,7,2|11,7,2

>  <current_task>  (942) 
no_task

>  <rotatable_bond_torsions>  (942) 
1,0,2,7;0,2,7,8

>  <rotated_aniline_Nd0_dihedral>  (942) 
84.48

>  <rotated_aniline_Nd0_tolerance>  (942) 
30.0

>  <rotated_aniline_Nd0_context>  (942) 
nonaromatic_ring

>  <rotated_aniline_Nd0_substituent_idx>  (942) 
7

>  <rotated_aniline_Nd0_ring>  (942) 
1 3 4 5 6 0

>  <flag ortho>  (942) 


$$$$

     RDKit          3D

  9 10  0  0  0  0  0  0  0  0999 V2000
  -28.0460   -7.4790  -31.4070 C   0  0  0  0  0  0  0  0  0  0  0  0
  -27.6880   -6.6100  -32.3690 N   0  0  0  0  0  0  0  0  0  0  0  0
  -27.9520   -8.8170  -31.3940 N   0  0  0  0  0  0  0  0  0  0  0  0
  -27.8850   -5.2990  -32.1410 C   0  0  0  0  0  0  0  0  0  0  0  0
  -28.4330   -4.8230  -30.9680 C   0  0  0  0  0  0  0  0  0  0  0  0
  -28.7990   -5.6910  -29.9880 C   0  0  0  0  0  0  0  0  0  0  0  0
  -28.6030   -7.0420  -30.2080 C   0  0  0  0  0  0  0  0  0  0  0  0
  -28.4330   -9.2710  -30.2180 C   0  0  0  0  0  0  0  0  0  0  0  0
  -28.8500   -8.1900  -29.4490 C   0  0  0  0  0  0  0  0  0  0  0  0
  1  2  2  0
  1  3  1  0
  1  7  1  0
  2  4  1  0
  3  8  1  0
  4  5  2  0
  5  6  1  0
  6  7  2  0
  7  9  1  0
  8  9  2  0
M  END
>  <name>  (943) 
Car Nac Nd0 Car Car Car Car Car Car

>  <indices>  (943) 
[0, 1, 2]

>  <tasks>  (943) 
probe_placing close_aromatic_ring close_aromatic_ring close_aromatic_ring close_aromatic_ring ring_built build_to_Nd0

>  <prot_clashes>  (943) 
0

>  <NBS phar>  (943) 
0.22000000000000003

>  <NBS_non-phar>  (943) 
0.7115680906507704

>  <NBS>  (943) 
0.9315680906507704

>  <source_stage>  (943) 
scored

>  <source_iter>  (943) 
6

>  <source_parent_mol>  (943) 
4

>  <source_scenario>  (943) 
1 2 5 0 0 4

>  <source_rank_in_scored_call>  (943) 
6

>  <source_current_task>  (943) 
close_aromatic_ring

>  <scenario>  (943) 
1 2 5 0 0

>  <protected_ring_attachments>  (943) 
3,1,0,2|1,0,2;5,6,0,2|6,0,2

>  <current_task>  (943) 
no_task

>  <rotatable_bond_torsions>  (943) 
1,0,2,7

$$$$
