
     RDKit          3D

  9 10  0  0  0  0  0  0  0  0999 V2000
  -27.8239   -7.5531  -31.2000 C   0  0  0  0  0  0  0  0  0  0  0  0
  -27.6016   -6.6486  -32.1676 N   0  0  0  0  0  0  0  0  0  0  0  0
  -27.6904   -8.8965  -31.2029 N   0  0  0  0  0  0  0  0  0  0  0  0
  -27.8202   -5.3522  -31.8861 C   0  0  0  0  0  0  0  0  0  0  0  0
  -28.2477   -4.9084  -30.6946 N   0  0  0  0  0  0  0  0  0  0  0  0
  -28.4888   -5.7848  -29.6772 C   0  0  0  0  0  0  0  0  0  0  0  0
  -28.2603   -7.1147  -29.9793 C   0  0  0  0  0  0  0  0  0  0  0  0
  -28.0415   -9.3527  -29.9729 C   0  0  0  0  0  0  0  0  0  0  0  0
  -28.4000   -8.2458  -29.1990 C   0  0  0  0  0  0  0  0  0  0  0  0
  1  2  2  0
  1  3  1  0
  2  4  1  0
  4  5  2  0
  5  6  1  0
  6  7  2  0
  1  7  1  0
  3  8  1  0
  8  9  2  0
  7  9  1  0
M  END
>  <name>  (1) 
Car Nac Nd0 Car Nac Car Car Car Car

>  <indices>  (1) 
[0, 1, 2]

>  <tasks>  (1) 
probe_placing close_aromatic_ring close_aromatic_ring close_aromatic_ring close_aromatic_ring ring_built build_to_Nd0

>  <prot_clashes>  (1) 
0

>  <NBS phar>  (1) 
0.24000000000000005

>  <NBS_non-phar>  (1) 
0.829793029361301

>  <NBS>  (1) 
1.069793029361301

>  <source_stage>  (1) 
scored

>  <source_iter>  (1) 
6

>  <source_parent_mol>  (1) 
0

>  <source_scenario>  (1) 
1 1 0 0 0 0

>  <source_rank_in_scored_call>  (1) 
0

>  <source_current_task>  (1) 
close_aromatic_ring

>  <scenario>  (1) 
1 1 0 0 0

>  <current_task>  (1) 
no_task

$$$$

     RDKit          3D

  9 10  0  0  0  0  0  0  0  0999 V2000
  -27.6560   -7.4790  -31.5460 C   0  0  0  0  0  0  0  0  0  0  0  0
  -27.3190   -6.6180  -32.5190 N   0  0  0  0  0  0  0  0  0  0  0  0
  -27.3890   -8.7950  -31.4040 N   0  0  0  0  0  0  0  0  0  0  0  0
  -27.7250   -5.3400  -32.4030 C   0  0  0  0  0  0  0  0  0  0  0  0
  -28.4480   -4.8770  -31.3730 N   0  0  0  0  0  0  0  0  0  0  0  0
  -28.8170   -5.7110  -30.3580 C   0  0  0  0  0  0  0  0  0  0  0  0
  -28.3930   -7.0210  -30.4880 C   0  0  0  0  0  0  0  0  0  0  0  0
  -27.9540   -9.2130  -30.2420 C   0  0  0  0  0  0  0  0  0  0  0  0
  -28.5860   -8.1100  -29.6610 C   0  0  0  0  0  0  0  0  0  0  0  0
  1  2  2  0
  1  3  1  0
  1  7  1  0
  2  4  1  0
  3  8  1  0
  4  5  2  0
  5  6  1  0
  6  7  2  0
  7  9  1  0
  8  9  2  0
M  END
>  <name>  (2) 
Car Nac Nd0 Car Nac Car Car Car Car

>  <indices>  (2) 
[0, 1, 2]

>  <tasks>  (2) 
probe_placing close_aromatic_ring close_aromatic_ring close_aromatic_ring close_aromatic_ring ring_built build_to_Nd0

>  <prot_clashes>  (2) 
1

>  <NBS phar>  (2) 
0.2

>  <NBS_non-phar>  (2) 
0.6206546359592013

>  <NBS>  (2) 
0.8206546359592013

>  <source_stage>  (2) 
scored

>  <source_iter>  (2) 
6

>  <source_parent_mol>  (2) 
0

>  <source_scenario>  (2) 
1 1 0 0 0 0

>  <source_rank_in_scored_call>  (2) 
11

>  <source_current_task>  (2) 
close_aromatic_ring

>  <scenario>  (2) 
1 1 0 0 0

>  <current_task>  (2) 
no_task

$$$$

     RDKit          3D

  9 10  0  0  0  0  0  0  0  0999 V2000
  -27.8779   -7.5815  -31.1793 C   0  0  0  0  0  0  0  0  0  0  0  0
  -27.5855   -6.6352  -32.0772 N   0  0  0  0  0  0  0  0  0  0  0  0
  -27.7543   -8.9219  -31.2047 N   0  0  0  0  0  0  0  0  0  0  0  0
  -27.7958   -5.3090  -31.8400 C   0  0  0  0  0  0  0  0  0  0  0  0
  -28.3299   -4.9112  -30.6330 C   0  0  0  0  0  0  0  0  0  0  0  0
  -28.6380   -5.8933  -29.6902 C   0  0  0  0  0  0  0  0  0  0  0  0
  -28.4146   -7.2391  -29.9548 C   0  0  0  0  0  0  0  0  0  0  0  0
  -28.2005   -9.4396  -30.0231 C   0  0  0  0  0  0  0  0  0  0  0  0
  -28.6205   -8.3878  -29.2244 C   0  0  0  0  0  0  0  0  0  0  0  0
  1  2  2  0
  1  3  1  0
  2  4  1  0
  4  5  2  0
  5  6  1  0
  6  7  2  0
  1  7  1  0
  3  8  1  0
  8  9  2  0
  7  9  1  0
M  END
>  <name>  (3) 
Car Nac Nd0 Car Car Car Car Car Car

>  <indices>  (3) 
[0, 1, 2]

>  <tasks>  (3) 
probe_placing close_aromatic_ring close_aromatic_ring close_aromatic_ring close_aromatic_ring ring_built build_to_Nd0

>  <prot_clashes>  (3) 
0

>  <NBS phar>  (3) 
0.2

>  <NBS_non-phar>  (3) 
0.7642144097222222

>  <NBS>  (3) 
0.9642144097222223

>  <source_stage>  (3) 
scored

>  <source_iter>  (3) 
6

>  <source_parent_mol>  (3) 
0

>  <source_scenario>  (3) 
1 1 2 0 0 0

>  <source_rank_in_scored_call>  (3) 
9

>  <source_current_task>  (3) 
close_aromatic_ring

>  <scenario>  (3) 
1 1 2 0 0

>  <current_task>  (3) 
no_task

$$$$

     RDKit          3D

  9 10  0  0  0  0  0  0  0  0999 V2000
  -27.8460   -7.3870  -31.7240 C   0  0  0  0  0  0  0  0  0  0  0  0
  -27.3840   -6.4090  -32.5100 N   0  0  0  0  0  0  0  0  0  0  0  0
  -27.6970   -8.7240  -31.7610 N   0  0  0  0  0  0  0  0  0  0  0  0
  -27.6640   -5.0930  -32.2860 C   0  0  0  0  0  0  0  0  0  0  0  0
  -28.4520   -4.7390  -31.2120 C   0  0  0  0  0  0  0  0  0  0  0  0
  -28.9380   -5.7540  -30.3860 C   0  0  0  0  0  0  0  0  0  0  0  0
  -28.6400   -7.0890  -30.6350 C   0  0  0  0  0  0  0  0  0  0  0  0
  -28.3780   -9.2840  -30.7180 C   0  0  0  0  0  0  0  0  0  0  0  0
  -28.9780   -8.2620  -29.9990 C   0  0  0  0  0  0  0  0  0  0  0  0
  1  2  2  0
  1  3  1  0
  1  7  1  0
  2  4  1  0
  3  8  1  0
  4  5  2  0
  5  6  1  0
  6  7  2  0
  7  9  1  0
  8  9  2  0
M  END
>  <name>  (4) 
Car Nac Nd0 Car Car Car Car Car Car

>  <indices>  (4) 
[0, 1, 2]

>  <tasks>  (4) 
probe_placing close_aromatic_ring close_aromatic_ring close_aromatic_ring close_aromatic_ring ring_built build_to_Nd0

>  <prot_clashes>  (4) 
0

>  <NBS phar>  (4) 
0.2

>  <NBS_non-phar>  (4) 
0.593186272515191

>  <NBS>  (4) 
0.793186272515191

>  <source_stage>  (4) 
scored

>  <source_iter>  (4) 
6

>  <source_parent_mol>  (4) 
0

>  <source_scenario>  (4) 
1 1 2 0 0 0

>  <source_rank_in_scored_call>  (4) 
15

>  <source_current_task>  (4) 
close_aromatic_ring

>  <scenario>  (4) 
1 1 2 0 0

>  <current_task>  (4) 
no_task

$$$$

     RDKit          3D

  9 10  0  0  0  0  0  0  0  0999 V2000
  -27.8157   -7.5772  -31.1843 C   0  0  0  0  0  0  0  0  0  0  0  0
  -27.6232   -6.6304  -32.1432 N   0  0  0  0  0  0  0  0  0  0  0  0
  -27.6886   -8.9242  -31.1585 N   0  0  0  0  0  0  0  0  0  0  0  0
  -27.8404   -5.3143  -31.8580 C   0  0  0  0  0  0  0  0  0  0  0  0
  -28.2563   -4.9136  -30.6039 C   0  0  0  0  0  0  0  0  0  0  0  0
  -28.4482   -5.8480  -29.6510 N   0  0  0  0  0  0  0  0  0  0  0  0
  -28.2358   -7.1413  -29.9278 C   0  0  0  0  0  0  0  0  0  0  0  0
  -28.0083   -9.3903  -29.9358 C   0  0  0  0  0  0  0  0  0  0  0  0
  -28.3479   -8.2835  -29.1720 C   0  0  0  0  0  0  0  0  0  0  0  0
  1  2  2  0
  1  3  1  0
  2  4  1  0
  4  5  2  0
  5  6  1  0
  6  7  2  0
  1  7  1  0
  3  8  1  0
  8  9  2  0
  7  9  1  0
M  END
>  <name>  (5) 
Car Nac Nd0 Car Car Nac Car Car Car

>  <indices>  (5) 
[0, 1, 2]

>  <tasks>  (5) 
probe_placing close_aromatic_ring close_aromatic_ring close_aromatic_ring close_aromatic_ring ring_built build_to_Nd0

>  <prot_clashes>  (5) 
0

>  <NBS phar>  (5) 
0.24000000000000005

>  <NBS_non-phar>  (5) 
0.7429513931274414

>  <NBS>  (5) 
0.9829513931274414

>  <source_stage>  (5) 
scored

>  <source_iter>  (5) 
6

>  <source_parent_mol>  (5) 
0

>  <source_scenario>  (5) 
1 1 2 1 0 0

>  <source_rank_in_scored_call>  (5) 
4

>  <source_current_task>  (5) 
close_aromatic_ring

>  <scenario>  (5) 
1 1 2 1 0

>  <current_task>  (5) 
no_task

$$$$

     RDKit          3D

  9 10  0  0  0  0  0  0  0  0999 V2000
  -27.5930   -7.4860  -31.5560 C   0  0  0  0  0  0  0  0  0  0  0  0
  -27.3230   -6.5630  -32.5200 N   0  0  0  0  0  0  0  0  0  0  0  0
  -27.3070   -8.8000  -31.4110 N   0  0  0  0  0  0  0  0  0  0  0  0
  -27.7580   -5.2780  -32.3780 C   0  0  0  0  0  0  0  0  0  0  0  0
  -28.4740   -4.8860  -31.2660 C   0  0  0  0  0  0  0  0  0  0  0  0
  -28.7440   -5.7950  -30.3080 N   0  0  0  0  0  0  0  0  0  0  0  0
  -28.3180   -7.0580  -30.4450 C   0  0  0  0  0  0  0  0  0  0  0  0
  -27.8140   -9.2530  -30.2490 C   0  0  0  0  0  0  0  0  0  0  0  0
  -28.4430   -8.1720  -29.6490 C   0  0  0  0  0  0  0  0  0  0  0  0
  1  2  2  0
  1  3  1  0
  1  7  1  0
  2  4  1  0
  3  8  1  0
  4  5  2  0
  5  6  1  0
  6  7  2  0
  7  9  1  0
  8  9  2  0
M  END
>  <name>  (6) 
Car Nac Nd0 Car Car Nac Car Car Car

>  <indices>  (6) 
[0, 1, 2]

>  <tasks>  (6) 
probe_placing close_aromatic_ring close_aromatic_ring close_aromatic_ring close_aromatic_ring ring_built build_to_Nd0

>  <prot_clashes>  (6) 
1

>  <NBS phar>  (6) 
0.2

>  <NBS_non-phar>  (6) 
0.6981974707709419

>  <NBS>  (6) 
0.8981974707709419

>  <source_stage>  (6) 
scored

>  <source_iter>  (6) 
6

>  <source_parent_mol>  (6) 
0

>  <source_scenario>  (6) 
1 1 2 1 0 0

>  <source_rank_in_scored_call>  (6) 
9

>  <source_current_task>  (6) 
close_aromatic_ring

>  <scenario>  (6) 
1 1 2 1 0

>  <current_task>  (6) 
no_task

$$$$

     RDKit          3D

 18 20  0  0  0  0  0  0  0  0999 V2000
  -27.8239   -7.5531  -31.2000 C   0  0  0  0  0  0  0  0  0  0  0  0
  -27.6016   -6.6486  -32.1676 N   0  0  0  0  0  0  0  0  0  0  0  0
  -27.6904   -8.8965  -31.2029 N   0  0  0  0  0  0  0  0  0  0  0  0
  -27.8202   -5.3522  -31.8861 C   0  0  0  0  0  0  0  0  0  0  0  0
  -28.2477   -4.9084  -30.6946 N   0  0  0  0  0  0  0  0  0  0  0  0
  -28.4888   -5.7848  -29.6772 C   0  0  0  0  0  0  0  0  0  0  0  0
  -28.2603   -7.1147  -29.9793 C   0  0  0  0  0  0  0  0  0  0  0  0
  -28.0415   -9.3527  -29.9729 C   0  0  0  0  0  0  0  0  0  0  0  0
  -28.4000   -8.2458  -29.1990 C   0  0  0  0  0  0  0  0  0  0  0  0
  -28.8183   -8.2771  -27.8907 N   0  0  0  0  0  0  0  0  0  0  0  0
  -27.9010   -8.7434  -26.8909 C   0  0  0  0  0  0  0  0  0  0  0  0
  -26.7277   -8.9998  -26.9974 O   0  0  0  0  0  0  0  0  0  0  0  0
  -28.4931   -8.9372  -25.3726 C   0  0  0  0  0  0  0  0  0  0  0  0
  -27.6025   -8.9718  -24.3195 C   0  0  0  0  0  0  0  0  0  0  0  0
  -29.8428   -8.8494  -25.0939 C   0  0  0  0  0  0  0  0  0  0  0  0
  -28.0059   -8.9220  -22.9933 C   0  0  0  0  0  0  0  0  0  0  0  0
  -29.3510   -8.8345  -22.7202 C   0  0  0  0  0  0  0  0  0  0  0  0
  -30.2705   -8.7982  -23.7760 C   0  0  0  0  0  0  0  0  0  0  0  0
  1  2  2  0
  1  3  1  0
  2  4  1  0
  4  5  2  0
  5  6  1  0
  6  7  2  0
  1  7  1  0
  3  8  1  0
  8  9  2  0
  7  9  1  0
  9 10  1  0
 10 11  1  0
 11 12  2  0
 11 13  1  0
 13 14  2  0
 13 15  1  0
 14 16  1  0
 16 17  2  0
 15 18  2  0
 17 18  1  0
M  END
>  <name>  (7) 
Car Nac Nd0 Car Nac Car Car Car Car Nd0 Cs2 .=O Car Car Car Car Car Car

>  <indices>  (7) 
[0, 1, 2]

>  <tasks>  (7) 
probe_placing close_aromatic_ring close_aromatic_ring close_aromatic_ring close_aromatic_ring ring_built build_to_Nd0 close_aromatic_ring no_task build_to_Nd0 build_DB_to_Cs2 build_SB_to_Cs2 close_aromatic_ring close_aromatic_ring close_aromatic_ring close_aromatic_ring

>  <prot_clashes>  (7) 
1

>  <NBS phar>  (7) 
0.34

>  <NBS_non-phar>  (7) 
0.6816171010335287

>  <NBS>  (7) 
1.0216171010335287

>  <source_stage>  (7) 
scored

>  <source_iter>  (7) 
15

>  <source_parent_mol>  (7) 
0

>  <source_scenario>  (7) 
1 1 0 0 0 0 0 1 1 0 1 0 2 0 0

>  <source_rank_in_scored_call>  (7) 
0

>  <source_current_task>  (7) 
close_aromatic_ring

>  <scenario>  (7) 
1 1 0 0 0 0 0 1 1 0 1 0 2 0

>  <current_task>  (7) 
no_task

$$$$

     RDKit          3D

 18 20  0  0  0  0  0  0  0  0999 V2000
  -27.7680   -7.6060  -31.7620 C   0  0  0  0  0  0  0  0  0  0  0  0
  -27.6730   -6.7480  -32.7910 N   0  0  0  0  0  0  0  0  0  0  0  0
  -27.6040   -8.9450  -31.7160 N   0  0  0  0  0  0  0  0  0  0  0  0
  -27.8890   -5.4430  -32.5480 C   0  0  0  0  0  0  0  0  0  0  0  0
  -28.1950   -4.9470  -31.3400 N   0  0  0  0  0  0  0  0  0  0  0  0
  -28.3030   -5.7770  -30.2610 C   0  0  0  0  0  0  0  0  0  0  0  0
  -28.0780   -7.1160  -30.5230 C   0  0  0  0  0  0  0  0  0  0  0  0
  -27.8080   -9.3460  -30.4340 C   0  0  0  0  0  0  0  0  0  0  0  0
  -28.1060   -8.2090  -29.6790 C   0  0  0  0  0  0  0  0  0  0  0  0
  -28.3780   -8.1820  -28.3330 N   0  0  0  0  0  0  0  0  0  0  0  0
  -27.3470   -8.5810  -27.4190 C   0  0  0  0  0  0  0  0  0  0  0  0
  -26.1870   -8.8220  -27.6410 O   0  0  0  0  0  0  0  0  0  0  0  0
  -27.7650   -8.7090  -25.8370 C   0  0  0  0  0  0  0  0  0  0  0  0
  -26.7640   -8.6760  -24.8880 C   0  0  0  0  0  0  0  0  0  0  0  0
  -29.0780   -8.6310  -25.4160 C   0  0  0  0  0  0  0  0  0  0  0  0
  -27.0220   -8.5670  -23.5290 C   0  0  0  0  0  0  0  0  0  0  0  0
  -28.3310   -8.4900  -23.1140 C   0  0  0  0  0  0  0  0  0  0  0  0
  -29.3600   -8.5220  -24.0630 C   0  0  0  0  0  0  0  0  0  0  0  0
  1  2  2  0
  1  3  1  0
  1  7  1  0
  2  4  1  0
  3  8  1  0
  4  5  2  0
  5  6  1  0
  6  7  2  0
  7  9  1  0
  8  9  2  0
  9 10  1  0
 10 11  1  0
 11 12  2  0
 11 13  1  0
 13 15  1  0
 13 14  2  0
 14 16  1  0
 15 18  2  0
 16 17  2  0
 17 18  1  0
M  END
>  <name>  (8) 
Car Nac Nd0 Car Nac Car Car Car Car Nd0 Cs2 .=O Car Car Car Car Car Car

>  <indices>  (8) 
[0, 1, 2]

>  <tasks>  (8) 
probe_placing close_aromatic_ring close_aromatic_ring close_aromatic_ring close_aromatic_ring ring_built build_to_Nd0 close_aromatic_ring no_task build_to_Nd0 build_DB_to_Cs2 build_SB_to_Cs2 close_aromatic_ring close_aromatic_ring close_aromatic_ring close_aromatic_ring

>  <prot_clashes>  (8) 
5

>  <NBS phar>  (8) 
0.3

>  <NBS_non-phar>  (8) 
0.6333939764234755

>  <NBS>  (8) 
0.9333939764234755

>  <source_stage>  (8) 
scored

>  <source_iter>  (8) 
15

>  <source_parent_mol>  (8) 
0

>  <source_scenario>  (8) 
1 1 0 0 0 0 0 1 1 0 1 0 2 0 0

>  <source_rank_in_scored_call>  (8) 
1

>  <source_current_task>  (8) 
close_aromatic_ring

>  <scenario>  (8) 
1 1 0 0 0 0 0 1 1 0 1 0 2 0

>  <current_task>  (8) 
no_task

$$$$

     RDKit          3D

 15 17  0  0  0  0  0  0  0  0999 V2000
  -27.8239   -7.5531  -31.2000 C   0  0  0  0  0  0  0  0  0  0  0  0
  -27.6016   -6.6486  -32.1676 N   0  0  0  0  0  0  0  0  0  0  0  0
  -27.6904   -8.8965  -31.2029 N   0  0  0  0  0  0  0  0  0  0  0  0
  -27.8202   -5.3522  -31.8861 C   0  0  0  0  0  0  0  0  0  0  0  0
  -28.2477   -4.9084  -30.6946 N   0  0  0  0  0  0  0  0  0  0  0  0
  -28.4888   -5.7848  -29.6772 C   0  0  0  0  0  0  0  0  0  0  0  0
  -28.2603   -7.1147  -29.9793 C   0  0  0  0  0  0  0  0  0  0  0  0
  -28.0415   -9.3527  -29.9729 C   0  0  0  0  0  0  0  0  0  0  0  0
  -28.4000   -8.2458  -29.1990 C   0  0  0  0  0  0  0  0  0  0  0  0
  -28.0562  -10.7714  -29.5434 C   0  0  0  0  0  0  0  0  0  0  0  0
  -28.8306  -11.6224  -30.3086 C   0  0  0  0  0  0  0  0  0  0  0  0
  -27.3228  -11.2691  -28.4934 C   0  0  0  0  0  0  0  0  0  0  0  0
  -27.3738  -12.6311  -28.2176 C   0  0  0  0  0  0  0  0  0  0  0  0
  -28.1599  -13.4682  -29.0010 C   0  0  0  0  0  0  0  0  0  0  0  0
  -28.8996  -12.9909  -30.0540 C   0  0  0  0  0  0  0  0  0  0  0  0
  1  2  2  0
  1  3  1  0
  2  4  1  0
  4  5  2  0
  5  6  1  0
  6  7  2  0
  1  7  1  0
  3  8  1  0
  8  9  2  0
  7  9  1  0
  8 10  1  0
 10 11  2  0
 10 12  1  0
 12 13  2  0
 13 14  1  0
 11 15  1  0
 14 15  2  0
M  END
>  <name>  (9) 
Car Nac Nd0 Car Nac Car Car Car Car Car Car Car Car Car Car

>  <indices>  (9) 
[0, 1, 2]

>  <tasks>  (9) 
probe_placing close_aromatic_ring close_aromatic_ring close_aromatic_ring close_aromatic_ring ring_built build_to_Nd0 close_aromatic_ring no_task close_aromatic_ring close_aromatic_ring close_aromatic_ring close_aromatic_ring

>  <prot_clashes>  (9) 
0

>  <NBS phar>  (9) 
0.26000000000000006

>  <NBS_non-phar>  (9) 
0.7686910629272461

>  <NBS>  (9) 
1.028691062927246

>  <source_stage>  (9) 
scored

>  <source_iter>  (9) 
12

>  <source_parent_mol>  (9) 
0

>  <source_scenario>  (9) 
1 1 0 0 0 0 0 3 1 1 0 0

>  <source_rank_in_scored_call>  (9) 
1

>  <source_current_task>  (9) 
close_aromatic_ring

>  <scenario>  (9) 
1 1 0 0 0 0 0 3 1 1 0

>  <current_task>  (9) 
no_task

$$$$

     RDKit          3D

 15 17  0  0  0  0  0  0  0  0999 V2000
  -27.8239   -7.5531  -31.2000 C   0  0  0  0  0  0  0  0  0  0  0  0
  -27.6016   -6.6486  -32.1676 N   0  0  0  0  0  0  0  0  0  0  0  0
  -27.6904   -8.8965  -31.2029 N   0  0  0  0  0  0  0  0  0  0  0  0
  -27.8202   -5.3522  -31.8861 C   0  0  0  0  0  0  0  0  0  0  0  0
  -28.2477   -4.9084  -30.6946 N   0  0  0  0  0  0  0  0  0  0  0  0
  -28.4888   -5.7848  -29.6772 C   0  0  0  0  0  0  0  0  0  0  0  0
  -28.2603   -7.1147  -29.9793 C   0  0  0  0  0  0  0  0  0  0  0  0
  -28.0415   -9.3527  -29.9729 C   0  0  0  0  0  0  0  0  0  0  0  0
  -28.4000   -8.2458  -29.1990 C   0  0  0  0  0  0  0  0  0  0  0  0
  -28.0628  -10.7559  -29.5473 C   0  0  0  0  0  0  0  0  0  0  0  0
  -28.9570  -11.5375  -30.2521 C   0  0  0  0  0  0  0  0  0  0  0  0
  -27.2917  -11.2944  -28.5513 C   0  0  0  0  0  0  0  0  0  0  0  0
  -27.4238  -12.6382  -28.2623 C   0  0  0  0  0  0  0  0  0  0  0  0
  -28.3164  -13.4584  -28.9531 C   0  0  0  0  0  0  0  0  0  0  0  0
  -29.0760  -12.8791  -29.9497 C   0  0  0  0  0  0  0  0  0  0  0  0
  1  2  2  0
  1  3  1  0
  2  4  1  0
  4  5  2  0
  5  6  1  0
  6  7  2  0
  1  7  1  0
  3  8  1  0
  8  9  2  0
  7  9  1  0
  8 10  1  0
 10 11  2  0
 10 12  1  0
 12 13  2  0
 13 14  1  0
 11 15  1  0
 14 15  2  0
M  END
>  <name>  (10) 
Car Nac Nd0 Car Nac Car Car Car Car Car Car Car Car Car Car

>  <indices>  (10) 
[0, 1, 2]

>  <tasks>  (10) 
probe_placing close_aromatic_ring close_aromatic_ring close_aromatic_ring close_aromatic_ring ring_built build_to_Nd0 close_aromatic_ring no_task close_aromatic_ring close_aromatic_ring close_aromatic_ring close_aromatic_ring

>  <prot_clashes>  (10) 
1

>  <NBS phar>  (10) 
0.26000000000000006

>  <NBS_non-phar>  (10) 
0.7245567957560222

>  <NBS>  (10) 
0.9845567957560222

>  <source_stage>  (10) 
scored

>  <source_iter>  (10) 
12

>  <source_parent_mol>  (10) 
0

>  <source_scenario>  (10) 
1 1 0 0 0 0 0 3 1 1 0 0

>  <source_rank_in_scored_call>  (10) 
2

>  <source_current_task>  (10) 
close_aromatic_ring

>  <scenario>  (10) 
1 1 0 0 0 0 0 3 1 1 0

>  <current_task>  (10) 
no_task

$$$$

     RDKit          3D

 15 17  0  0  0  0  0  0  0  0999 V2000
  -27.7070   -7.3970  -31.5540 C   0  0  0  0  0  0  0  0  0  0  0  0
  -27.3120   -6.5560  -32.5230 N   0  0  0  0  0  0  0  0  0  0  0  0
  -27.4790   -8.7170  -31.3880 N   0  0  0  0  0  0  0  0  0  0  0  0
  -27.6890   -5.2680  -32.4370 C   0  0  0  0  0  0  0  0  0  0  0  0
  -28.4390   -4.7740  -31.4400 N   0  0  0  0  0  0  0  0  0  0  0  0
  -28.8670   -5.5870  -30.4310 C   0  0  0  0  0  0  0  0  0  0  0  0
  -28.4720   -6.9080  -30.5300 C   0  0  0  0  0  0  0  0  0  0  0  0
  -28.0990   -9.1070  -30.2440 C   0  0  0  0  0  0  0  0  0  0  0  0
  -28.7240   -7.9820  -29.6990 C   0  0  0  0  0  0  0  0  0  0  0  0
  -28.1200  -10.4810  -29.6900 C   0  0  0  0  0  0  0  0  0  0  0  0
  -28.6080  -11.4610  -30.5340 C   0  0  0  0  0  0  0  0  0  0  0  0
  -27.6460  -10.8210  -28.4460 C   0  0  0  0  0  0  0  0  0  0  0  0
  -27.6650  -12.1560  -28.0560 C   0  0  0  0  0  0  0  0  0  0  0  0
  -28.1610  -13.1240  -28.9210 C   0  0  0  0  0  0  0  0  0  0  0  0
  -28.6400  -12.8060  -30.1670 C   0  0  0  0  0  0  0  0  0  0  0  0
  1  2  2  0
  1  3  1  0
  1  7  1  0
  2  4  1  0
  3  8  1  0
  4  5  2  0
  5  6  1  0
  6  7  2  0
  7  9  1  0
  8  9  2  0
  8 10  1  0
 10 11  2  0
 10 12  1  0
 11 15  1  0
 12 13  2  0
 13 14  1  0
 14 15  2  0
M  END
>  <name>  (11) 
Car Nac Nd0 Car Nac Car Car Car Car Car Car Car Car Car Car

>  <indices>  (11) 
[0, 1, 2]

>  <tasks>  (11) 
probe_placing close_aromatic_ring close_aromatic_ring close_aromatic_ring close_aromatic_ring ring_built build_to_Nd0 close_aromatic_ring no_task close_aromatic_ring close_aromatic_ring close_aromatic_ring close_aromatic_ring

>  <prot_clashes>  (11) 
1

>  <NBS phar>  (11) 
0.2

>  <NBS_non-phar>  (11) 
0.6743316650390625

>  <NBS>  (11) 
0.8743316650390625

>  <source_stage>  (11) 
scored

>  <source_iter>  (11) 
12

>  <source_parent_mol>  (11) 
0

>  <source_scenario>  (11) 
1 1 0 0 0 0 0 3 1 1 0 0

>  <source_rank_in_scored_call>  (11) 
3

>  <source_current_task>  (11) 
close_aromatic_ring

>  <scenario>  (11) 
1 1 0 0 0 0 0 3 1 1 0

>  <current_task>  (11) 
no_task

$$$$

     RDKit          3D

 15 17  0  0  0  0  0  0  0  0999 V2000
  -27.7770   -6.7570  -31.8700 C   0  0  0  0  0  0  0  0  0  0  0  0
  -27.1910   -5.8530  -32.6710 N   0  0  0  0  0  0  0  0  0  0  0  0
  -27.7910   -8.1060  -31.9280 N   0  0  0  0  0  0  0  0  0  0  0  0
  -27.3420   -4.5500  -32.3730 C   0  0  0  0  0  0  0  0  0  0  0  0
  -28.0440   -4.1000  -31.3230 N   0  0  0  0  0  0  0  0  0  0  0  0
  -28.6600   -4.9770  -30.4770 C   0  0  0  0  0  0  0  0  0  0  0  0
  -28.4960   -6.3140  -30.7930 C   0  0  0  0  0  0  0  0  0  0  0  0
  -28.5280   -8.5610  -30.8810 C   0  0  0  0  0  0  0  0  0  0  0  0
  -28.9740   -7.4470  -30.1650 C   0  0  0  0  0  0  0  0  0  0  0  0
  -28.8200   -9.9650  -30.5770 C   0  0  0  0  0  0  0  0  0  0  0  0
  -29.5520  -10.6050  -31.5570 C   0  0  0  0  0  0  0  0  0  0  0  0
  -28.4300  -10.6280  -29.4440 C   0  0  0  0  0  0  0  0  0  0  0  0
  -28.7820  -11.9560  -29.2970 C   0  0  0  0  0  0  0  0  0  0  0  0
  -29.5200  -12.6350  -30.2660 C   0  0  0  0  0  0  0  0  0  0  0  0
  -29.8950  -11.9330  -31.3940 C   0  0  0  0  0  0  0  0  0  0  0  0
  1  2  2  0
  1  3  1  0
  1  7  1  0
  2  4  1  0
  3  8  1  0
  4  5  2  0
  5  6  1  0
  6  7  2  0
  7  9  1  0
  8 10  1  0
  8  9  2  0
 10 11  2  0
 10 12  1  0
 11 15  1  0
 12 13  2  0
 13 14  1  0
 14 15  2  0
M  END
>  <name>  (12) 
Car Nac Nd0 Car Nac Car Car Car Car Car Car Car Car Car Car

>  <indices>  (12) 
[0, 1, 2]

>  <tasks>  (12) 
probe_placing close_aromatic_ring close_aromatic_ring close_aromatic_ring close_aromatic_ring ring_built build_to_Nd0 close_aromatic_ring no_task close_aromatic_ring close_aromatic_ring close_aromatic_ring close_aromatic_ring

>  <prot_clashes>  (12) 
7

>  <NBS phar>  (12) 
0.1

>  <NBS_non-phar>  (12) 
0.48315134048461916

>  <NBS>  (12) 
0.5831513404846191

>  <source_stage>  (12) 
scored

>  <source_iter>  (12) 
12

>  <source_parent_mol>  (12) 
0

>  <source_scenario>  (12) 
1 1 0 0 0 0 0 3 1 1 0 0

>  <source_rank_in_scored_call>  (12) 
5

>  <source_current_task>  (12) 
close_aromatic_ring

>  <scenario>  (12) 
1 1 0 0 0 0 0 3 1 1 0

>  <current_task>  (12) 
no_task

$$$$

     RDKit          3D

 16 18  0  0  0  0  0  0  0  0999 V2000
  -27.8239   -7.5531  -31.2000 C   0  0  0  0  0  0  0  0  0  0  0  0
  -27.6016   -6.6486  -32.1676 N   0  0  0  0  0  0  0  0  0  0  0  0
  -27.6904   -8.8965  -31.2029 N   0  0  0  0  0  0  0  0  0  0  0  0
  -27.8202   -5.3522  -31.8861 C   0  0  0  0  0  0  0  0  0  0  0  0
  -28.2477   -4.9084  -30.6946 N   0  0  0  0  0  0  0  0  0  0  0  0
  -28.4888   -5.7848  -29.6772 C   0  0  0  0  0  0  0  0  0  0  0  0
  -28.2603   -7.1147  -29.9793 C   0  0  0  0  0  0  0  0  0  0  0  0
  -28.0415   -9.3527  -29.9729 C   0  0  0  0  0  0  0  0  0  0  0  0
  -28.4000   -8.2458  -29.1990 C   0  0  0  0  0  0  0  0  0  0  0  0
  -28.0222  -10.7593  -29.5037 C   0  0  0  0  0  0  0  0  0  0  0  0
  -28.9129  -11.5432  -30.3869 C   0  0  0  0  0  0  0  0  0  0  0  0
  -27.3202  -11.2551  -28.5137 C   0  0  0  0  0  0  0  0  0  0  0  0
  -27.3728  -12.6789  -28.2022 C   0  0  0  0  0  0  0  0  0  0  0  0
  -28.1423  -13.4659  -28.9362 C   0  0  0  0  0  0  0  0  0  0  0  0
  -28.9018  -12.9277  -30.0079 N   0  0  0  0  0  0  0  0  0  0  0  0
  -29.5779  -11.0694  -31.3258 O   0  0  0  0  0  0  0  0  0  0  0  0
  1  2  2  0
  1  3  1  0
  2  4  1  0
  4  5  2  0
  5  6  1  0
  6  7  2  0
  1  7  1  0
  3  8  1  0
  8  9  2  0
  7  9  1  0
  8 10  1  0
 10 11  1  0
 10 12  2  0
 12 13  1  0
 13 14  2  0
 11 15  1  0
 14 15  1  0
 11 16  2  0
M  END
>  <name>  (13) 
Car Nac Nd0 Car Nac Car Car Car Car Car Car Car Car Car Nd0 .=O

>  <indices>  (13) 
[0, 1, 2]

>  <tasks>  (13) 
probe_placing close_aromatic_ring close_aromatic_ring close_aromatic_ring close_aromatic_ring ring_built build_to_Nd0 close_aromatic_ring no_task close_aromatic_ring close_aromatic_ring close_aromatic_ring close_aromatic_ring close_aromatic_ring

>  <prot_clashes>  (13) 
0

>  <NBS phar>  (13) 
0.36000000000000004

>  <NBS_non-phar>  (13) 
0.7746297121047974

>  <NBS>  (13) 
1.1346297121047975

>  <source_stage>  (13) 
scored

>  <source_iter>  (13) 
13

>  <source_parent_mol>  (13) 
1

>  <source_scenario>  (13) 
1 1 0 0 0 0 0 3 1 1 0 0 1

>  <source_rank_in_scored_call>  (13) 
0

>  <source_current_task>  (13) 
fix_Car

>  <scenario>  (13) 
1 1 0 0 0 0 0 3 1 1 0 0

>  <current_task>  (13) 
no_task

$$$$

     RDKit          3D

 16 18  0  0  0  0  0  0  0  0999 V2000
  -28.0660   -7.5760  -31.9280 C   0  0  0  0  0  0  0  0  0  0  0  0
  -27.6960   -6.7080  -32.8840 N   0  0  0  0  0  0  0  0  0  0  0  0
  -27.9870   -8.9230  -31.8840 N   0  0  0  0  0  0  0  0  0  0  0  0
  -27.8930   -5.3970  -32.6600 C   0  0  0  0  0  0  0  0  0  0  0  0
  -28.4390   -4.9040  -31.5390 N   0  0  0  0  0  0  0  0  0  0  0  0
  -28.8330   -5.7420  -30.5360 C   0  0  0  0  0  0  0  0  0  0  0  0
  -28.6240   -7.0880  -30.7780 C   0  0  0  0  0  0  0  0  0  0  0  0
  -28.4980   -9.3320  -30.6940 C   0  0  0  0  0  0  0  0  0  0  0  0
  -28.9000   -8.1910  -29.9940 C   0  0  0  0  0  0  0  0  0  0  0  0
  -28.5910  -10.7240  -30.1930 C   0  0  0  0  0  0  0  0  0  0  0  0
  -29.4040  -11.4980  -31.1570 C   0  0  0  0  0  0  0  0  0  0  0  0
  -28.0310  -11.2180  -29.1160 C   0  0  0  0  0  0  0  0  0  0  0  0
  -28.1770  -12.6300  -28.7790 C   0  0  0  0  0  0  0  0  0  0  0  0
  -28.8860  -13.4070  -29.5800 C   0  0  0  0  0  0  0  0  0  0  0  0
  -29.4930  -12.8710  -30.7470 N   0  0  0  0  0  0  0  0  0  0  0  0
  -29.9350  -11.0260  -32.1780 O   0  0  0  0  0  0  0  0  0  0  0  0
  1  2  2  0
  1  3  1  0
  1  7  1  0
  2  4  1  0
  3  8  1  0
  4  5  2  0
  5  6  1  0
  6  7  2  0
  7  9  1  0
  8 10  1  0
  8  9  2  0
 10 11  1  0
 10 12  2  0
 11 16  2  0
 11 15  1  0
 12 13  1  0
 13 14  2  0
 14 15  1  0
M  END
>  <name>  (14) 
Car Nac Nd0 Car Nac Car Car Car Car Car Car Car Car Car Nd0 .=O

>  <indices>  (14) 
[0, 1, 2]

>  <tasks>  (14) 
probe_placing close_aromatic_ring close_aromatic_ring close_aromatic_ring close_aromatic_ring ring_built build_to_Nd0 close_aromatic_ring no_task close_aromatic_ring close_aromatic_ring close_aromatic_ring close_aromatic_ring close_aromatic_ring

>  <prot_clashes>  (14) 
2

>  <NBS phar>  (14) 
0.22000000000000003

>  <NBS_non-phar>  (14) 
0.6071563363075256

>  <NBS>  (14) 
0.8271563363075256

>  <source_stage>  (14) 
scored

>  <source_iter>  (14) 
13

>  <source_parent_mol>  (14) 
1

>  <source_scenario>  (14) 
1 1 0 0 0 0 0 3 1 1 0 0 1

>  <source_rank_in_scored_call>  (14) 
15

>  <source_current_task>  (14) 
fix_Car

>  <scenario>  (14) 
1 1 0 0 0 0 0 3 1 1 0 0

>  <current_task>  (14) 
no_task

$$$$

     RDKit          3D

 15 17  0  0  0  0  0  0  0  0999 V2000
  -27.8239   -7.5531  -31.2000 C   0  0  0  0  0  0  0  0  0  0  0  0
  -27.6016   -6.6486  -32.1676 N   0  0  0  0  0  0  0  0  0  0  0  0
  -27.6904   -8.8965  -31.2029 N   0  0  0  0  0  0  0  0  0  0  0  0
  -27.8202   -5.3522  -31.8861 C   0  0  0  0  0  0  0  0  0  0  0  0
  -28.2477   -4.9084  -30.6946 N   0  0  0  0  0  0  0  0  0  0  0  0
  -28.4888   -5.7848  -29.6772 C   0  0  0  0  0  0  0  0  0  0  0  0
  -28.2603   -7.1147  -29.9793 C   0  0  0  0  0  0  0  0  0  0  0  0
  -28.0415   -9.3527  -29.9729 C   0  0  0  0  0  0  0  0  0  0  0  0
  -28.4000   -8.2458  -29.1990 C   0  0  0  0  0  0  0  0  0  0  0  0
  -28.0634  -10.7703  -29.5529 C   0  0  0  0  0  0  0  0  0  0  0  0
  -28.8358  -11.6184  -30.3161 C   0  0  0  0  0  0  0  0  0  0  0  0
  -27.3365  -11.2886  -28.5059 C   0  0  0  0  0  0  0  0  0  0  0  0
  -27.3644  -12.6472  -28.2017 C   0  0  0  0  0  0  0  0  0  0  0  0
  -28.8913  -12.9683  -30.0491 C   0  0  0  0  0  0  0  0  0  0  0  0
  -28.1515  -13.4603  -28.9923 C   0  0  0  0  0  0  0  0  0  0  0  0
  1  2  2  0
  1  3  1  0
  2  4  1  0
  4  5  2  0
  5  6  1  0
  6  7  2  0
  1  7  1  0
  3  8  1  0
  8  9  2  0
  7  9  1  0
  8 10  1  0
 10 11  2  0
 10 12  1  0
 12 13  2  0
 11 14  1  0
 13 15  1  0
 14 15  2  0
M  END
>  <name>  (15) 
Car Nac Nd0 Car Nac Car Car Car Car Car Car Car Car Car Car

>  <indices>  (15) 
[0, 1, 2]

>  <tasks>  (15) 
probe_placing close_aromatic_ring close_aromatic_ring close_aromatic_ring close_aromatic_ring ring_built build_to_Nd0 close_aromatic_ring no_task close_aromatic_ring close_aromatic_ring close_aromatic_ring close_aromatic_ring

>  <prot_clashes>  (15) 
0

>  <NBS phar>  (15) 
0.26000000000000006

>  <NBS_non-phar>  (15) 
0.7683828989664714

>  <NBS>  (15) 
1.0283828989664714

>  <source_stage>  (15) 
scored

>  <source_iter>  (15) 
12

>  <source_parent_mol>  (15) 
1

>  <source_scenario>  (15) 
1 1 0 0 0 0 0 3 1 1 0 1

>  <source_rank_in_scored_call>  (15) 
0

>  <source_current_task>  (15) 
close_aromatic_ring

>  <scenario>  (15) 
1 1 0 0 0 0 0 3 1 1 0

>  <current_task>  (15) 
no_task

$$$$

     RDKit          3D

 15 17  0  0  0  0  0  0  0  0999 V2000
  -27.6930   -7.3760  -31.5590 C   0  0  0  0  0  0  0  0  0  0  0  0
  -27.3100   -6.5390  -32.5370 N   0  0  0  0  0  0  0  0  0  0  0  0
  -27.4600   -8.6950  -31.3890 N   0  0  0  0  0  0  0  0  0  0  0  0
  -27.6880   -5.2510  -32.4530 C   0  0  0  0  0  0  0  0  0  0  0  0
  -28.4270   -4.7530  -31.4510 N   0  0  0  0  0  0  0  0  0  0  0  0
  -28.8420   -5.5610  -30.4320 C   0  0  0  0  0  0  0  0  0  0  0  0
  -28.4460   -6.8820  -30.5290 C   0  0  0  0  0  0  0  0  0  0  0  0
  -28.0660   -9.0790  -30.2350 C   0  0  0  0  0  0  0  0  0  0  0  0
  -28.6860   -7.9520  -29.6890 C   0  0  0  0  0  0  0  0  0  0  0  0
  -28.0820  -10.4510  -29.6850 C   0  0  0  0  0  0  0  0  0  0  0  0
  -28.5780  -11.4330  -30.5160 C   0  0  0  0  0  0  0  0  0  0  0  0
  -27.5970  -10.8060  -28.4480 C   0  0  0  0  0  0  0  0  0  0  0  0
  -27.5950  -12.1290  -28.0170 C   0  0  0  0  0  0  0  0  0  0  0  0
  -28.5940  -12.7540  -30.1280 C   0  0  0  0  0  0  0  0  0  0  0  0
  -28.1000  -13.0800  -28.8810 C   0  0  0  0  0  0  0  0  0  0  0  0
  1  2  2  0
  1  3  1  0
  1  7  1  0
  2  4  1  0
  3  8  1  0
  4  5  2  0
  5  6  1  0
  6  7  2  0
  7  9  1  0
  8  9  2  0
  8 10  1  0
 10 11  2  0
 10 12  1  0
 11 14  1  0
 12 13  2  0
 13 15  1  0
 14 15  2  0
M  END
>  <name>  (16) 
Car Nac Nd0 Car Nac Car Car Car Car Car Car Car Car Car Car

>  <indices>  (16) 
[0, 1, 2]

>  <tasks>  (16) 
probe_placing close_aromatic_ring close_aromatic_ring close_aromatic_ring close_aromatic_ring ring_built build_to_Nd0 close_aromatic_ring no_task close_aromatic_ring close_aromatic_ring close_aromatic_ring close_aromatic_ring

>  <prot_clashes>  (16) 
1

>  <NBS phar>  (16) 
0.2

>  <NBS_non-phar>  (16) 
0.6730365753173828

>  <NBS>  (16) 
0.8730365753173828

>  <source_stage>  (16) 
scored

>  <source_iter>  (16) 
12

>  <source_parent_mol>  (16) 
1

>  <source_scenario>  (16) 
1 1 0 0 0 0 0 3 1 1 0 1

>  <source_rank_in_scored_call>  (16) 
2

>  <source_current_task>  (16) 
close_aromatic_ring

>  <scenario>  (16) 
1 1 0 0 0 0 0 3 1 1 0

>  <current_task>  (16) 
no_task

$$$$

     RDKit          3D

 16 18  0  0  0  0  0  0  0  0999 V2000
  -27.8239   -7.5531  -31.2000 C   0  0  0  0  0  0  0  0  0  0  0  0
  -27.6016   -6.6486  -32.1676 N   0  0  0  0  0  0  0  0  0  0  0  0
  -27.6904   -8.8965  -31.2029 N   0  0  0  0  0  0  0  0  0  0  0  0
  -27.8202   -5.3522  -31.8861 C   0  0  0  0  0  0  0  0  0  0  0  0
  -28.2477   -4.9084  -30.6946 N   0  0  0  0  0  0  0  0  0  0  0  0
  -28.4888   -5.7848  -29.6772 C   0  0  0  0  0  0  0  0  0  0  0  0
  -28.2603   -7.1147  -29.9793 C   0  0  0  0  0  0  0  0  0  0  0  0
  -28.0415   -9.3527  -29.9729 C   0  0  0  0  0  0  0  0  0  0  0  0
  -28.4000   -8.2458  -29.1990 C   0  0  0  0  0  0  0  0  0  0  0  0
  -28.0489  -10.7456  -29.5280 C   0  0  0  0  0  0  0  0  0  0  0  0
  -28.8679  -11.6206  -30.3572 C   0  0  0  0  0  0  0  0  0  0  0  0
  -27.3468  -11.2528  -28.5282 C   0  0  0  0  0  0  0  0  0  0  0  0
  -27.3253  -12.6832  -28.1725 C   0  0  0  0  0  0  0  0  0  0  0  0
  -28.9181  -12.9294  -30.1196 C   0  0  0  0  0  0  0  0  0  0  0  0
  -28.1650  -13.4778  -29.0462 N   0  0  0  0  0  0  0  0  0  0  0  0
  -26.6625  -13.1540  -27.2305 O   0  0  0  0  0  0  0  0  0  0  0  0
  1  2  2  0
  1  3  1  0
  2  4  1  0
  4  5  2  0
  5  6  1  0
  6  7  2  0
  1  7  1  0
  3  8  1  0
  8  9  2  0
  7  9  1  0
  8 10  1  0
 10 11  1  0
 10 12  2  0
 12 13  1  0
 11 14  2  0
 14 15  1  0
 13 15  1  0
 13 16  2  0
M  END
>  <name>  (17) 
Car Nac Nd0 Car Nac Car Car Car Car Car Car Car Car Car Nd0 .=O

>  <indices>  (17) 
[0, 1, 2]

>  <tasks>  (17) 
probe_placing close_aromatic_ring close_aromatic_ring close_aromatic_ring close_aromatic_ring ring_built build_to_Nd0 close_aromatic_ring no_task close_aromatic_ring close_aromatic_ring close_aromatic_ring close_aromatic_ring close_aromatic_ring

>  <prot_clashes>  (17) 
0

>  <NBS phar>  (17) 
0.36000000000000004

>  <NBS_non-phar>  (17) 
0.7134034633636475

>  <NBS>  (17) 
1.0734034633636476

>  <source_stage>  (17) 
scored

>  <source_iter>  (17) 
13

>  <source_parent_mol>  (17) 
0

>  <source_scenario>  (17) 
1 1 0 0 0 0 0 3 1 1 0 1 0

>  <source_rank_in_scored_call>  (17) 
0

>  <source_current_task>  (17) 
fix_Car

>  <scenario>  (17) 
1 1 0 0 0 0 0 3 1 1 0 1

>  <current_task>  (17) 
no_task

$$$$

     RDKit          3D

 15 17  0  0  0  0  0  0  0  0999 V2000
  -27.8239   -7.5531  -31.2000 C   0  0  0  0  0  0  0  0  0  0  0  0
  -27.6016   -6.6486  -32.1676 N   0  0  0  0  0  0  0  0  0  0  0  0
  -27.6904   -8.8965  -31.2029 N   0  0  0  0  0  0  0  0  0  0  0  0
  -27.8202   -5.3522  -31.8861 C   0  0  0  0  0  0  0  0  0  0  0  0
  -28.2477   -4.9084  -30.6946 N   0  0  0  0  0  0  0  0  0  0  0  0
  -28.4888   -5.7848  -29.6772 C   0  0  0  0  0  0  0  0  0  0  0  0
  -28.2603   -7.1147  -29.9793 C   0  0  0  0  0  0  0  0  0  0  0  0
  -28.0415   -9.3527  -29.9729 C   0  0  0  0  0  0  0  0  0  0  0  0
  -28.4000   -8.2458  -29.1990 C   0  0  0  0  0  0  0  0  0  0  0  0
  -28.0583  -10.7628  -29.5447 C   0  0  0  0  0  0  0  0  0  0  0  0
  -28.8471  -11.6130  -30.3286 C   0  0  0  0  0  0  0  0  0  0  0  0
  -27.3206  -11.2749  -28.4971 C   0  0  0  0  0  0  0  0  0  0  0  0
  -28.8685  -12.9659  -30.0301 C   0  0  0  0  0  0  0  0  0  0  0  0
  -28.1388  -13.5009  -28.9870 C   0  0  0  0  0  0  0  0  0  0  0  0
  -27.3723  -12.6393  -28.2337 C   0  0  0  0  0  0  0  0  0  0  0  0
  1  2  2  0
  1  3  1  0
  2  4  1  0
  4  5  2  0
  5  6  1  0
  6  7  2  0
  1  7  1  0
  3  8  1  0
  8  9  2  0
  7  9  1  0
  8 10  1  0
 10 11  2  0
 10 12  1  0
 11 13  1  0
 13 14  2  0
 14 15  1  0
 12 15  2  0
M  END
>  <name>  (18) 
Car Nac Nd0 Car Nac Car Car Car Car Car Car Car Car Car Car

>  <indices>  (18) 
[0, 1, 2]

>  <tasks>  (18) 
probe_placing close_aromatic_ring close_aromatic_ring close_aromatic_ring close_aromatic_ring ring_built build_to_Nd0 close_aromatic_ring no_task close_aromatic_ring close_aromatic_ring close_aromatic_ring close_aromatic_ring

>  <prot_clashes>  (18) 
0

>  <NBS phar>  (18) 
0.26000000000000006

>  <NBS_non-phar>  (18) 
0.7560608545939128

>  <NBS>  (18) 
1.016060854593913

>  <source_stage>  (18) 
scored

>  <source_iter>  (18) 
12

>  <source_parent_mol>  (18) 
1

>  <source_scenario>  (18) 
1 1 0 0 0 0 0 3 1 1 2 1

>  <source_rank_in_scored_call>  (18) 
0

>  <source_current_task>  (18) 
close_aromatic_ring

>  <scenario>  (18) 
1 1 0 0 0 0 0 3 1 1 2

>  <current_task>  (18) 
no_task

$$$$

     RDKit          3D

 15 17  0  0  0  0  0  0  0  0999 V2000
  -27.7330   -7.1340  -31.8020 C   0  0  0  0  0  0  0  0  0  0  0  0
  -27.1490   -6.1560  -32.5130 N   0  0  0  0  0  0  0  0  0  0  0  0
  -27.5770   -8.4740  -31.8560 N   0  0  0  0  0  0  0  0  0  0  0  0
  -27.4970   -4.8840  -32.2450 C   0  0  0  0  0  0  0  0  0  0  0  0
  -28.3930   -4.5360  -31.3110 N   0  0  0  0  0  0  0  0  0  0  0  0
  -29.0160   -5.4910  -30.5600 C   0  0  0  0  0  0  0  0  0  0  0  0
  -28.6490   -6.7940  -30.8440 C   0  0  0  0  0  0  0  0  0  0  0  0
  -28.3980   -9.0270  -30.9270 C   0  0  0  0  0  0  0  0  0  0  0  0
  -29.0740   -7.9840  -30.2880 C   0  0  0  0  0  0  0  0  0  0  0  0
  -28.5570  -10.4680  -30.6590 C   0  0  0  0  0  0  0  0  0  0  0  0
  -28.9260  -11.2410  -31.7660 C   0  0  0  0  0  0  0  0  0  0  0  0
  -28.3130  -11.0730  -29.4440 C   0  0  0  0  0  0  0  0  0  0  0  0
  -29.0380  -12.6140  -31.6130 C   0  0  0  0  0  0  0  0  0  0  0  0
  -28.7970  -13.2410  -30.4070 C   0  0  0  0  0  0  0  0  0  0  0  0
  -28.4350  -12.4530  -29.3360 C   0  0  0  0  0  0  0  0  0  0  0  0
  1  2  2  0
  1  3  1  0
  1  7  1  0
  2  4  1  0
  3  8  1  0
  4  5  2  0
  5  6  1  0
  6  7  2  0
  7  9  1  0
  8 10  1  0
  8  9  2  0
 10 11  2  0
 10 12  1  0
 11 13  1  0
 12 15  2  0
 13 14  2  0
 14 15  1  0
M  END
>  <name>  (19) 
Car Nac Nd0 Car Nac Car Car Car Car Car Car Car Car Car Car

>  <indices>  (19) 
[0, 1, 2]

>  <tasks>  (19) 
probe_placing close_aromatic_ring close_aromatic_ring close_aromatic_ring close_aromatic_ring ring_built build_to_Nd0 close_aromatic_ring no_task close_aromatic_ring close_aromatic_ring close_aromatic_ring close_aromatic_ring

>  <prot_clashes>  (19) 
2

>  <NBS phar>  (19) 
0.2

>  <NBS_non-phar>  (19) 
0.5611525217692057

>  <NBS>  (19) 
0.7611525217692057

>  <source_stage>  (19) 
scored

>  <source_iter>  (19) 
12

>  <source_parent_mol>  (19) 
1

>  <source_scenario>  (19) 
1 1 0 0 0 0 0 3 1 1 2 1

>  <source_rank_in_scored_call>  (19) 
2

>  <source_current_task>  (19) 
close_aromatic_ring

>  <scenario>  (19) 
1 1 0 0 0 0 0 3 1 1 2

>  <current_task>  (19) 
no_task

$$$$

     RDKit          3D

 15 17  0  0  0  0  0  0  0  0999 V2000
  -27.8239   -7.5531  -31.2000 C   0  0  0  0  0  0  0  0  0  0  0  0
  -27.6016   -6.6486  -32.1676 N   0  0  0  0  0  0  0  0  0  0  0  0
  -27.6904   -8.8965  -31.2029 N   0  0  0  0  0  0  0  0  0  0  0  0
  -27.8202   -5.3522  -31.8861 C   0  0  0  0  0  0  0  0  0  0  0  0
  -28.2477   -4.9084  -30.6946 N   0  0  0  0  0  0  0  0  0  0  0  0
  -28.4888   -5.7848  -29.6772 C   0  0  0  0  0  0  0  0  0  0  0  0
  -28.2603   -7.1147  -29.9793 C   0  0  0  0  0  0  0  0  0  0  0  0
  -28.0415   -9.3527  -29.9729 C   0  0  0  0  0  0  0  0  0  0  0  0
  -28.4000   -8.2458  -29.1990 C   0  0  0  0  0  0  0  0  0  0  0  0
  -28.2327  -10.7929  -29.6240 C   0  0  0  0  0  0  0  0  0  0  0  0
  -28.7329  -11.6820  -30.5692 C   0  0  0  0  0  0  0  0  0  0  0  0
  -28.9625  -12.9956  -30.1946 C   0  0  0  0  0  0  0  0  0  0  0  0
  -28.6951  -13.3988  -28.9045 C   0  0  0  0  0  0  0  0  0  0  0  0
  -28.1955  -12.5380  -27.9359 C   0  0  0  0  0  0  0  0  0  0  0  0
  -27.9766  -11.2302  -28.3429 C   0  0  0  0  0  0  0  0  0  0  0  0
  1  2  2  0
  1  3  1  0
  2  4  1  0
  4  5  2  0
  5  6  1  0
  6  7  2  0
  1  7  1  0
  3  8  1  0
  8  9  2  0
  7  9  1  0
  8 10  1  0
 10 11  2  0
 11 12  1  0
 12 13  2  0
 13 14  1  0
 10 15  1  0
 14 15  2  0
M  END
>  <name>  (20) 
Car Nac Nd0 Car Nac Car Car Car Car Car Car Car Car Car Car

>  <indices>  (20) 
[0, 1, 2]

>  <tasks>  (20) 
probe_placing close_aromatic_ring close_aromatic_ring close_aromatic_ring close_aromatic_ring ring_built build_to_Nd0 close_aromatic_ring no_task close_aromatic_ring close_aromatic_ring close_aromatic_ring close_aromatic_ring

>  <prot_clashes>  (20) 
0

>  <NBS phar>  (20) 
0.24000000000000005

>  <NBS_non-phar>  (20) 
0.7248971303304036

>  <NBS>  (20) 
0.9648971303304037

>  <source_stage>  (20) 
scored

>  <source_iter>  (20) 
12

>  <source_parent_mol>  (20) 
1

>  <source_scenario>  (20) 
1 1 0 0 0 0 0 4 0 1 1 1

>  <source_rank_in_scored_call>  (20) 
0

>  <source_current_task>  (20) 
close_aromatic_ring

>  <scenario>  (20) 
1 1 0 0 0 0 0 4 0 1 1

>  <current_task>  (20) 
no_task

$$$$

     RDKit          3D

 15 17  0  0  0  0  0  0  0  0999 V2000
  -27.8430   -6.8140  -32.0140 C   0  0  0  0  0  0  0  0  0  0  0  0
  -27.4560   -5.8410  -32.8540 N   0  0  0  0  0  0  0  0  0  0  0  0
  -27.7360   -8.1560  -32.1140 N   0  0  0  0  0  0  0  0  0  0  0  0
  -27.6900   -4.5650  -32.4960 C   0  0  0  0  0  0  0  0  0  0  0  0
  -28.2900   -4.2080  -31.3510 N   0  0  0  0  0  0  0  0  0  0  0  0
  -28.7030   -5.1590  -30.4630 C   0  0  0  0  0  0  0  0  0  0  0  0
  -28.4550   -6.4660  -30.8410 C   0  0  0  0  0  0  0  0  0  0  0  0
  -28.2830   -8.7020  -30.9970 C   0  0  0  0  0  0  0  0  0  0  0  0
  -28.7370   -7.6530  -30.1940 C   0  0  0  0  0  0  0  0  0  0  0  0
  -28.5550  -10.1590  -30.8090 C   0  0  0  0  0  0  0  0  0  0  0  0
  -28.9180  -10.9500  -31.8930 C   0  0  0  0  0  0  0  0  0  0  0  0
  -29.2280  -12.2820  -31.6750 C   0  0  0  0  0  0  0  0  0  0  0  0
  -29.1730  -12.8000  -30.3990 C   0  0  0  0  0  0  0  0  0  0  0  0
  -28.8130  -12.0390  -29.2940 C   0  0  0  0  0  0  0  0  0  0  0  0
  -28.5100  -10.7100  -29.5470 C   0  0  0  0  0  0  0  0  0  0  0  0
  1  2  2  0
  1  3  1  0
  1  7  1  0
  2  4  1  0
  3  8  1  0
  4  5  2  0
  5  6  1  0
  6  7  2  0
  7  9  1  0
  8 10  1  0
  8  9  2  0
 10 11  2  0
 10 15  1  0
 11 12  1  0
 12 13  2  0
 13 14  1  0
 14 15  2  0
M  END
>  <name>  (21) 
Car Nac Nd0 Car Nac Car Car Car Car Car Car Car Car Car Car

>  <indices>  (21) 
[0, 1, 2]

>  <tasks>  (21) 
probe_placing close_aromatic_ring close_aromatic_ring close_aromatic_ring close_aromatic_ring ring_built build_to_Nd0 close_aromatic_ring no_task close_aromatic_ring close_aromatic_ring close_aromatic_ring close_aromatic_ring

>  <prot_clashes>  (21) 
1

>  <NBS phar>  (21) 
0.1

>  <NBS_non-phar>  (21) 
0.5519088745117188

>  <NBS>  (21) 
0.6519088745117188

>  <source_stage>  (21) 
scored

>  <source_iter>  (21) 
12

>  <source_parent_mol>  (21) 
1

>  <source_scenario>  (21) 
1 1 0 0 0 0 0 4 0 1 1 1

>  <source_rank_in_scored_call>  (21) 
1

>  <source_current_task>  (21) 
close_aromatic_ring

>  <scenario>  (21) 
1 1 0 0 0 0 0 4 0 1 1

>  <current_task>  (21) 
no_task

$$$$

     RDKit          3D

 15 17  0  0  0  0  0  0  0  0999 V2000
  -27.8239   -7.5531  -31.2000 C   0  0  0  0  0  0  0  0  0  0  0  0
  -27.6016   -6.6486  -32.1676 N   0  0  0  0  0  0  0  0  0  0  0  0
  -27.6904   -8.8965  -31.2029 N   0  0  0  0  0  0  0  0  0  0  0  0
  -27.8202   -5.3522  -31.8861 C   0  0  0  0  0  0  0  0  0  0  0  0
  -28.2477   -4.9084  -30.6946 N   0  0  0  0  0  0  0  0  0  0  0  0
  -28.4888   -5.7848  -29.6772 C   0  0  0  0  0  0  0  0  0  0  0  0
  -28.2603   -7.1147  -29.9793 C   0  0  0  0  0  0  0  0  0  0  0  0
  -28.0415   -9.3527  -29.9729 C   0  0  0  0  0  0  0  0  0  0  0  0
  -28.4000   -8.2458  -29.1990 C   0  0  0  0  0  0  0  0  0  0  0  0
  -28.1371  -10.6770  -29.3702 C   0  0  0  0  0  0  0  0  0  0  0  0
  -28.8501  -11.6075  -30.0966 C   0  0  0  0  0  0  0  0  0  0  0  0
  -27.4545  -11.1111  -28.2727 C   0  0  0  0  0  0  0  0  0  0  0  0
  -27.4795  -12.4518  -27.9011 C   0  0  0  0  0  0  0  0  0  0  0  0
  -28.8822  -12.9578  -29.7321 C   0  0  0  0  0  0  0  0  0  0  0  0
  -28.1827  -13.3928  -28.6102 C   0  0  0  0  0  0  0  0  0  0  0  0
  1  2  2  0
  1  3  1  0
  2  4  1  0
  4  5  2  0
  5  6  1  0
  6  7  2  0
  1  7  1  0
  3  8  1  0
  8  9  2  0
  7  9  1  0
  8 10  1  0
 10 11  2  0
 10 12  1  0
 12 13  2  0
 11 14  1  0
 14 15  2  0
 13 15  1  0
M  END
>  <name>  (22) 
Car Nac Nd0 Car Nac Car Car Car Car Car Car Car Car Car Car

>  <indices>  (22) 
[0, 1, 2]

>  <tasks>  (22) 
probe_placing close_aromatic_ring close_aromatic_ring close_aromatic_ring close_aromatic_ring ring_built build_to_Nd0 close_aromatic_ring no_task close_aromatic_ring close_aromatic_ring close_aromatic_ring close_aromatic_ring

>  <prot_clashes>  (22) 
0

>  <NBS phar>  (22) 
0.24000000000000005

>  <NBS_non-phar>  (22) 
0.7735595067342123

>  <NBS>  (22) 
1.0135595067342122

>  <source_stage>  (22) 
scored

>  <source_iter>  (22) 
12

>  <source_parent_mol>  (22) 
2

>  <source_scenario>  (22) 
1 1 0 0 0 0 0 6 0 1 0 2

>  <source_rank_in_scored_call>  (22) 
1

>  <source_current_task>  (22) 
close_aromatic_ring

>  <scenario>  (22) 
1 1 0 0 0 0 0 6 0 1 0

>  <current_task>  (22) 
no_task

$$$$

     RDKit          3D

 15 17  0  0  0  0  0  0  0  0999 V2000
  -27.8239   -7.5531  -31.2000 C   0  0  0  0  0  0  0  0  0  0  0  0
  -27.6016   -6.6486  -32.1676 N   0  0  0  0  0  0  0  0  0  0  0  0
  -27.6904   -8.8965  -31.2029 N   0  0  0  0  0  0  0  0  0  0  0  0
  -27.8202   -5.3522  -31.8861 C   0  0  0  0  0  0  0  0  0  0  0  0
  -28.2477   -4.9084  -30.6946 N   0  0  0  0  0  0  0  0  0  0  0  0
  -28.4888   -5.7848  -29.6772 C   0  0  0  0  0  0  0  0  0  0  0  0
  -28.2603   -7.1147  -29.9793 C   0  0  0  0  0  0  0  0  0  0  0  0
  -28.0415   -9.3527  -29.9729 C   0  0  0  0  0  0  0  0  0  0  0  0
  -28.4000   -8.2458  -29.1990 C   0  0  0  0  0  0  0  0  0  0  0  0
  -28.0847  -10.7117  -29.4135 C   0  0  0  0  0  0  0  0  0  0  0  0
  -28.8486  -11.6381  -30.0713 C   0  0  0  0  0  0  0  0  0  0  0  0
  -27.4359  -11.0832  -28.2509 C   0  0  0  0  0  0  0  0  0  0  0  0
  -27.5883  -12.3945  -27.7950 C   0  0  0  0  0  0  0  0  0  0  0  0
  -28.9976  -12.9259  -29.6225 C   0  0  0  0  0  0  0  0  0  0  0  0
  -28.3578  -13.3132  -28.4652 C   0  0  0  0  0  0  0  0  0  0  0  0
  1  2  2  0
  1  3  1  0
  2  4  1  0
  4  5  2  0
  5  6  1  0
  6  7  2  0
  1  7  1  0
  3  8  1  0
  8  9  2  0
  7  9  1  0
  8 10  1  0
 10 11  2  0
 10 12  1  0
 12 13  2  0
 11 14  1  0
 13 15  1  0
 14 15  2  0
M  END
>  <name>  (23) 
Car Nac Nd0 Car Nac Car Car Car Car Car Car Car Car Car Car

>  <indices>  (23) 
[0, 1, 2]

>  <tasks>  (23) 
probe_placing close_aromatic_ring close_aromatic_ring close_aromatic_ring close_aromatic_ring ring_built build_to_Nd0 close_aromatic_ring no_task close_aromatic_ring close_aromatic_ring close_aromatic_ring close_aromatic_ring

>  <prot_clashes>  (23) 
0

>  <NBS phar>  (23) 
0.24000000000000005

>  <NBS_non-phar>  (23) 
0.7697786966959635

>  <NBS>  (23) 
1.0097786966959637

>  <source_stage>  (23) 
scored

>  <source_iter>  (23) 
12

>  <source_parent_mol>  (23) 
2

>  <source_scenario>  (23) 
1 1 0 0 0 0 0 6 0 1 0 2

>  <source_rank_in_scored_call>  (23) 
2

>  <source_current_task>  (23) 
close_aromatic_ring

>  <scenario>  (23) 
1 1 0 0 0 0 0 6 0 1 0

>  <current_task>  (23) 
no_task

$$$$

     RDKit          3D

 15 17  0  0  0  0  0  0  0  0999 V2000
  -27.6350   -7.3340  -31.5510 C   0  0  0  0  0  0  0  0  0  0  0  0
  -27.2960   -6.4870  -32.5370 N   0  0  0  0  0  0  0  0  0  0  0  0
  -27.3620   -8.6460  -31.3850 N   0  0  0  0  0  0  0  0  0  0  0  0
  -27.7090   -5.2110  -32.4450 C   0  0  0  0  0  0  0  0  0  0  0  0
  -28.4430   -4.7340  -31.4290 N   0  0  0  0  0  0  0  0  0  0  0  0
  -28.8150   -5.5530  -30.4020 C   0  0  0  0  0  0  0  0  0  0  0  0
  -28.3830   -6.8620  -30.5070 C   0  0  0  0  0  0  0  0  0  0  0  0
  -27.9330   -9.0470  -30.2200 C   0  0  0  0  0  0  0  0  0  0  0  0
  -28.5760   -7.9380  -29.6630 C   0  0  0  0  0  0  0  0  0  0  0  0
  -28.0230  -10.3220  -29.5180 C   0  0  0  0  0  0  0  0  0  0  0  0
  -28.4480  -11.3880  -30.2820 C   0  0  0  0  0  0  0  0  0  0  0  0
  -27.5660  -10.5790  -28.2600 C   0  0  0  0  0  0  0  0  0  0  0  0
  -27.5330  -11.8790  -27.7650 C   0  0  0  0  0  0  0  0  0  0  0  0
  -28.4180  -12.7000  -29.7940 C   0  0  0  0  0  0  0  0  0  0  0  0
  -27.9510  -12.9540  -28.5080 C   0  0  0  0  0  0  0  0  0  0  0  0
  1  2  2  0
  1  3  1  0
  1  7  1  0
  2  4  1  0
  3  8  1  0
  4  5  2  0
  5  6  1  0
  6  7  2  0
  7  9  1  0
  8  9  2  0
  8 10  1  0
 10 11  2  0
 10 12  1  0
 11 14  1  0
 12 13  2  0
 13 15  1  0
 14 15  2  0
M  END
>  <name>  (24) 
Car Nac Nd0 Car Nac Car Car Car Car Car Car Car Car Car Car

>  <indices>  (24) 
[0, 1, 2]

>  <tasks>  (24) 
probe_placing close_aromatic_ring close_aromatic_ring close_aromatic_ring close_aromatic_ring ring_built build_to_Nd0 close_aromatic_ring no_task close_aromatic_ring close_aromatic_ring close_aromatic_ring close_aromatic_ring

>  <prot_clashes>  (24) 
1

>  <NBS phar>  (24) 
0.2

>  <NBS_non-phar>  (24) 
0.6851051330566407

>  <NBS>  (24) 
0.8851051330566406

>  <source_stage>  (24) 
scored

>  <source_iter>  (24) 
12

>  <source_parent_mol>  (24) 
2

>  <source_scenario>  (24) 
1 1 0 0 0 0 0 6 0 1 0 2

>  <source_rank_in_scored_call>  (24) 
3

>  <source_current_task>  (24) 
close_aromatic_ring

>  <scenario>  (24) 
1 1 0 0 0 0 0 6 0 1 0

>  <current_task>  (24) 
no_task

$$$$

     RDKit          3D

 15 17  0  0  0  0  0  0  0  0999 V2000
  -27.6420   -7.3250  -31.5540 C   0  0  0  0  0  0  0  0  0  0  0  0
  -27.3120   -6.4770  -32.5410 N   0  0  0  0  0  0  0  0  0  0  0  0
  -27.3640   -8.6360  -31.3910 N   0  0  0  0  0  0  0  0  0  0  0  0
  -27.7280   -5.2010  -32.4460 C   0  0  0  0  0  0  0  0  0  0  0  0
  -28.4540   -4.7260  -31.4230 N   0  0  0  0  0  0  0  0  0  0  0  0
  -28.8160   -5.5470  -30.3940 C   0  0  0  0  0  0  0  0  0  0  0  0
  -28.3820   -6.8550  -30.5030 C   0  0  0  0  0  0  0  0  0  0  0  0
  -27.9250   -9.0390  -30.2220 C   0  0  0  0  0  0  0  0  0  0  0  0
  -28.5650   -7.9320  -29.6580 C   0  0  0  0  0  0  0  0  0  0  0  0
  -27.9430  -10.3450  -29.5470 C   0  0  0  0  0  0  0  0  0  0  0  0
  -28.4360  -11.4100  -30.2520 C   0  0  0  0  0  0  0  0  0  0  0  0
  -27.5290  -10.5390  -28.2430 C   0  0  0  0  0  0  0  0  0  0  0  0
  -27.6330  -11.8210  -27.6970 C   0  0  0  0  0  0  0  0  0  0  0  0
  -28.5380  -12.6680  -29.7140 C   0  0  0  0  0  0  0  0  0  0  0  0
  -28.1310  -12.8800  -28.4150 C   0  0  0  0  0  0  0  0  0  0  0  0
  1  2  2  0
  1  3  1  0
  1  7  1  0
  2  4  1  0
  3  8  1  0
  4  5  2  0
  5  6  1  0
  6  7  2  0
  7  9  1  0
  8  9  2  0
  8 10  1  0
 10 11  2  0
 10 12  1  0
 11 14  1  0
 12 13  2  0
 13 15  1  0
 14 15  2  0
M  END
>  <name>  (25) 
Car Nac Nd0 Car Nac Car Car Car Car Car Car Car Car Car Car

>  <indices>  (25) 
[0, 1, 2]

>  <tasks>  (25) 
probe_placing close_aromatic_ring close_aromatic_ring close_aromatic_ring close_aromatic_ring ring_built build_to_Nd0 close_aromatic_ring no_task close_aromatic_ring close_aromatic_ring close_aromatic_ring close_aromatic_ring

>  <prot_clashes>  (25) 
2

>  <NBS phar>  (25) 
0.2

>  <NBS_non-phar>  (25) 
0.5750240961710612

>  <NBS>  (25) 
0.7750240961710613

>  <source_stage>  (25) 
scored

>  <source_iter>  (25) 
12

>  <source_parent_mol>  (25) 
2

>  <source_scenario>  (25) 
1 1 0 0 0 0 0 6 0 1 0 2

>  <source_rank_in_scored_call>  (25) 
4

>  <source_current_task>  (25) 
close_aromatic_ring

>  <scenario>  (25) 
1 1 0 0 0 0 0 6 0 1 0

>  <current_task>  (25) 
no_task

$$$$

     RDKit          3D

 15 17  0  0  0  0  0  0  0  0999 V2000
  -27.8239   -7.5531  -31.2000 C   0  0  0  0  0  0  0  0  0  0  0  0
  -27.6016   -6.6486  -32.1676 N   0  0  0  0  0  0  0  0  0  0  0  0
  -27.6904   -8.8965  -31.2029 N   0  0  0  0  0  0  0  0  0  0  0  0
  -27.8202   -5.3522  -31.8861 C   0  0  0  0  0  0  0  0  0  0  0  0
  -28.2477   -4.9084  -30.6946 N   0  0  0  0  0  0  0  0  0  0  0  0
  -28.4888   -5.7848  -29.6772 C   0  0  0  0  0  0  0  0  0  0  0  0
  -28.2603   -7.1147  -29.9793 C   0  0  0  0  0  0  0  0  0  0  0  0
  -28.0415   -9.3527  -29.9729 C   0  0  0  0  0  0  0  0  0  0  0  0
  -28.4000   -8.2458  -29.1990 C   0  0  0  0  0  0  0  0  0  0  0  0
  -28.0825  -10.6937  -29.4207 C   0  0  0  0  0  0  0  0  0  0  0  0
  -28.8566  -11.6259  -30.0897 C   0  0  0  0  0  0  0  0  0  0  0  0
  -27.4466  -11.0998  -28.2594 C   0  0  0  0  0  0  0  0  0  0  0  0
  -27.5870  -12.3979  -27.7913 C   0  0  0  0  0  0  0  0  0  0  0  0
  -28.3548  -13.3360  -28.4477 C   0  0  0  0  0  0  0  0  0  0  0  0
  -28.9853  -12.9133  -29.6097 C   0  0  0  0  0  0  0  0  0  0  0  0
  1  2  2  0
  1  3  1  0
  2  4  1  0
  4  5  2  0
  5  6  1  0
  6  7  2  0
  1  7  1  0
  3  8  1  0
  8  9  2  0
  7  9  1  0
  8 10  1  0
 10 11  2  0
 10 12  1  0
 12 13  2  0
 13 14  1  0
 11 15  1  0
 14 15  2  0
M  END
>  <name>  (26) 
Car Nac Nd0 Car Nac Car Car Car Car Car Car Car Car Car Car

>  <indices>  (26) 
[0, 1, 2]

>  <tasks>  (26) 
probe_placing close_aromatic_ring close_aromatic_ring close_aromatic_ring close_aromatic_ring ring_built build_to_Nd0 close_aromatic_ring no_task close_aromatic_ring close_aromatic_ring close_aromatic_ring close_aromatic_ring

>  <prot_clashes>  (26) 
0

>  <NBS phar>  (26) 
0.24000000000000005

>  <NBS_non-phar>  (26) 
0.7697625478108724

>  <NBS>  (26) 
1.0097625478108725

>  <source_stage>  (26) 
scored

>  <source_iter>  (26) 
12

>  <source_parent_mol>  (26) 
3

>  <source_scenario>  (26) 
1 1 0 0 0 0 0 6 0 1 0 3

>  <source_rank_in_scored_call>  (26) 
1

>  <source_current_task>  (26) 
close_aromatic_ring

>  <scenario>  (26) 
1 1 0 0 0 0 0 6 0 1 0

>  <current_task>  (26) 
no_task

$$$$

     RDKit          3D

 15 17  0  0  0  0  0  0  0  0999 V2000
  -27.8239   -7.5531  -31.2000 C   0  0  0  0  0  0  0  0  0  0  0  0
  -27.6016   -6.6486  -32.1676 N   0  0  0  0  0  0  0  0  0  0  0  0
  -27.6904   -8.8965  -31.2029 N   0  0  0  0  0  0  0  0  0  0  0  0
  -27.8202   -5.3522  -31.8861 C   0  0  0  0  0  0  0  0  0  0  0  0
  -28.2477   -4.9084  -30.6946 N   0  0  0  0  0  0  0  0  0  0  0  0
  -28.4888   -5.7848  -29.6772 C   0  0  0  0  0  0  0  0  0  0  0  0
  -28.2603   -7.1147  -29.9793 C   0  0  0  0  0  0  0  0  0  0  0  0
  -28.0415   -9.3527  -29.9729 C   0  0  0  0  0  0  0  0  0  0  0  0
  -28.4000   -8.2458  -29.1990 C   0  0  0  0  0  0  0  0  0  0  0  0
  -28.0971  -10.7252  -29.4127 C   0  0  0  0  0  0  0  0  0  0  0  0
  -28.9806  -11.6226  -29.9769 C   0  0  0  0  0  0  0  0  0  0  0  0
  -27.3756  -11.1190  -28.2790 C   0  0  0  0  0  0  0  0  0  0  0  0
  -27.5595  -12.3856  -27.7513 C   0  0  0  0  0  0  0  0  0  0  0  0
  -28.4602  -13.2484  -28.3577 C   0  0  0  0  0  0  0  0  0  0  0  0
  -29.1891  -12.8935  -29.4774 C   0  0  0  0  0  0  0  0  0  0  0  0
  1  2  2  0
  1  3  1  0
  2  4  1  0
  4  5  2  0
  5  6  1  0
  6  7  2  0
  1  7  1  0
  3  8  1  0
  8  9  2  0
  7  9  1  0
  8 10  1  0
 10 11  2  0
 10 12  1  0
 12 13  2  0
 13 14  1  0
 14 15  2  0
 11 15  1  0
M  END
>  <name>  (27) 
Car Nac Nd0 Car Nac Car Car Car Car Car Car Car Car Car Car

>  <indices>  (27) 
[0, 1, 2]

>  <tasks>  (27) 
probe_placing close_aromatic_ring close_aromatic_ring close_aromatic_ring close_aromatic_ring ring_built build_to_Nd0 close_aromatic_ring no_task close_aromatic_ring close_aromatic_ring close_aromatic_ring close_aromatic_ring

>  <prot_clashes>  (27) 
0

>  <NBS phar>  (27) 
0.24000000000000005

>  <NBS_non-phar>  (27) 
0.7458660125732421

>  <NBS>  (27) 
0.9858660125732421

>  <source_stage>  (27) 
scored

>  <source_iter>  (27) 
12

>  <source_parent_mol>  (27) 
3

>  <source_scenario>  (27) 
1 1 0 0 0 0 0 6 0 1 0 3

>  <source_rank_in_scored_call>  (27) 
2

>  <source_current_task>  (27) 
close_aromatic_ring

>  <scenario>  (27) 
1 1 0 0 0 0 0 6 0 1 0

>  <current_task>  (27) 
no_task

$$$$

     RDKit          3D

 15 17  0  0  0  0  0  0  0  0999 V2000
  -27.6240   -7.3250  -31.5460 C   0  0  0  0  0  0  0  0  0  0  0  0
  -27.2810   -6.4740  -32.5260 N   0  0  0  0  0  0  0  0  0  0  0  0
  -27.3500   -8.6370  -31.3840 N   0  0  0  0  0  0  0  0  0  0  0  0
  -27.6960   -5.1980  -32.4310 C   0  0  0  0  0  0  0  0  0  0  0  0
  -28.4340   -4.7260  -31.4160 N   0  0  0  0  0  0  0  0  0  0  0  0
  -28.8100   -5.5490  -30.3940 C   0  0  0  0  0  0  0  0  0  0  0  0
  -28.3760   -6.8580  -30.5030 C   0  0  0  0  0  0  0  0  0  0  0  0
  -27.9260   -9.0430  -30.2230 C   0  0  0  0  0  0  0  0  0  0  0  0
  -28.5720   -7.9370  -29.6640 C   0  0  0  0  0  0  0  0  0  0  0  0
  -27.9510  -10.3340  -29.5620 C   0  0  0  0  0  0  0  0  0  0  0  0
  -28.4450  -11.4040  -30.2900 C   0  0  0  0  0  0  0  0  0  0  0  0
  -27.5640  -10.5700  -28.2540 C   0  0  0  0  0  0  0  0  0  0  0  0
  -27.6690  -11.8370  -27.7010 C   0  0  0  0  0  0  0  0  0  0  0  0
  -28.1580  -12.9110  -28.4140 C   0  0  0  0  0  0  0  0  0  0  0  0
  -28.5420  -12.6580  -29.7240 C   0  0  0  0  0  0  0  0  0  0  0  0
  1  2  2  0
  1  3  1  0
  1  7  1  0
  2  4  1  0
  3  8  1  0
  4  5  2  0
  5  6  1  0
  6  7  2  0
  7  9  1  0
  8  9  2  0
  8 10  1  0
 10 11  2  0
 10 12  1  0
 11 15  1  0
 12 13  2  0
 13 14  1  0
 14 15  2  0
M  END
>  <name>  (28) 
Car Nac Nd0 Car Nac Car Car Car Car Car Car Car Car Car Car

>  <indices>  (28) 
[0, 1, 2]

>  <tasks>  (28) 
probe_placing close_aromatic_ring close_aromatic_ring close_aromatic_ring close_aromatic_ring ring_built build_to_Nd0 close_aromatic_ring no_task close_aromatic_ring close_aromatic_ring close_aromatic_ring close_aromatic_ring

>  <prot_clashes>  (28) 
2

>  <NBS phar>  (28) 
0.2

>  <NBS_non-phar>  (28) 
0.6198705673217774

>  <NBS>  (28) 
0.8198705673217774

>  <source_stage>  (28) 
scored

>  <source_iter>  (28) 
12

>  <source_parent_mol>  (28) 
3

>  <source_scenario>  (28) 
1 1 0 0 0 0 0 6 0 1 0 3

>  <source_rank_in_scored_call>  (28) 
3

>  <source_current_task>  (28) 
close_aromatic_ring

>  <scenario>  (28) 
1 1 0 0 0 0 0 6 0 1 0

>  <current_task>  (28) 
no_task

$$$$

     RDKit          3D

 15 17  0  0  0  0  0  0  0  0999 V2000
  -27.8390   -7.0780  -31.7310 C   0  0  0  0  0  0  0  0  0  0  0  0
  -27.3020   -6.1430  -32.5320 N   0  0  0  0  0  0  0  0  0  0  0  0
  -27.8080   -8.4250  -31.8080 N   0  0  0  0  0  0  0  0  0  0  0  0
  -27.4910   -4.8500  -32.2120 C   0  0  0  0  0  0  0  0  0  0  0  0
  -28.1850   -4.4390  -31.1410 N   0  0  0  0  0  0  0  0  0  0  0  0
  -28.7510   -5.3480  -30.2940 C   0  0  0  0  0  0  0  0  0  0  0  0
  -28.5490   -6.6730  -30.6330 C   0  0  0  0  0  0  0  0  0  0  0  0
  -28.5050   -8.9190  -30.7520 C   0  0  0  0  0  0  0  0  0  0  0  0
  -28.9730   -7.8310  -30.0100 C   0  0  0  0  0  0  0  0  0  0  0  0
  -28.8080  -10.3100  -30.3380 C   0  0  0  0  0  0  0  0  0  0  0  0
  -29.5750  -11.0880  -31.1820 C   0  0  0  0  0  0  0  0  0  0  0  0
  -28.4440  -10.8350  -29.0920 C   0  0  0  0  0  0  0  0  0  0  0  0
  -28.8530  -12.1080  -28.7330 C   0  0  0  0  0  0  0  0  0  0  0  0
  -29.6220  -12.8460  -29.6200 C   0  0  0  0  0  0  0  0  0  0  0  0
  -30.0010  -12.3600  -30.8570 C   0  0  0  0  0  0  0  0  0  0  0  0
  1  2  2  0
  1  3  1  0
  1  7  1  0
  2  4  1  0
  3  8  1  0
  4  5  2  0
  5  6  1  0
  6  7  2  0
  7  9  1  0
  8 10  1  0
  8  9  2  0
 10 11  2  0
 10 12  1  0
 11 15  1  0
 12 13  2  0
 13 14  1  0
 14 15  2  0
M  END
>  <name>  (29) 
Car Nac Nd0 Car Nac Car Car Car Car Car Car Car Car Car Car

>  <indices>  (29) 
[0, 1, 2]

>  <tasks>  (29) 
probe_placing close_aromatic_ring close_aromatic_ring close_aromatic_ring close_aromatic_ring ring_built build_to_Nd0 close_aromatic_ring no_task close_aromatic_ring close_aromatic_ring close_aromatic_ring close_aromatic_ring

>  <prot_clashes>  (29) 
5

>  <NBS phar>  (29) 
0.2

>  <NBS_non-phar>  (29) 
0.584179941813151

>  <NBS>  (29) 
0.784179941813151

>  <source_stage>  (29) 
scored

>  <source_iter>  (29) 
12

>  <source_parent_mol>  (29) 
3

>  <source_scenario>  (29) 
1 1 0 0 0 0 0 6 0 1 0 3

>  <source_rank_in_scored_call>  (29) 
5

>  <source_current_task>  (29) 
close_aromatic_ring

>  <scenario>  (29) 
1 1 0 0 0 0 0 6 0 1 0

>  <current_task>  (29) 
no_task

$$$$

     RDKit          3D

 15 17  0  0  0  0  0  0  0  0999 V2000
  -27.8239   -7.5531  -31.2000 C   0  0  0  0  0  0  0  0  0  0  0  0
  -27.6016   -6.6486  -32.1676 N   0  0  0  0  0  0  0  0  0  0  0  0
  -27.6904   -8.8965  -31.2029 N   0  0  0  0  0  0  0  0  0  0  0  0
  -27.8202   -5.3522  -31.8861 C   0  0  0  0  0  0  0  0  0  0  0  0
  -28.2477   -4.9084  -30.6946 N   0  0  0  0  0  0  0  0  0  0  0  0
  -28.4888   -5.7848  -29.6772 C   0  0  0  0  0  0  0  0  0  0  0  0
  -28.2603   -7.1147  -29.9793 C   0  0  0  0  0  0  0  0  0  0  0  0
  -28.0415   -9.3527  -29.9729 C   0  0  0  0  0  0  0  0  0  0  0  0
  -28.4000   -8.2458  -29.1990 C   0  0  0  0  0  0  0  0  0  0  0  0
  -28.1576  -10.6464  -29.4095 C   0  0  0  0  0  0  0  0  0  0  0  0
  -28.8670  -11.6115  -30.1004 C   0  0  0  0  0  0  0  0  0  0  0  0
  -27.4393  -11.0868  -28.3024 C   0  0  0  0  0  0  0  0  0  0  0  0
  -28.8787  -12.9430  -29.7334 C   0  0  0  0  0  0  0  0  0  0  0  0
  -28.1623  -13.3634  -28.6349 C   0  0  0  0  0  0  0  0  0  0  0  0
  -27.4495  -12.4364  -27.9284 C   0  0  0  0  0  0  0  0  0  0  0  0
  1  2  2  0
  1  3  1  0
  2  4  1  0
  4  5  2  0
  5  6  1  0
  6  7  2  0
  1  7  1  0
  3  8  1  0
  8  9  2  0
  7  9  1  0
  8 10  1  0
 10 11  2  0
 10 12  1  0
 11 13  1  0
 13 14  2  0
 12 15  2  0
 14 15  1  0
M  END
>  <name>  (30) 
Car Nac Nd0 Car Nac Car Car Car Car Car Car Car Car Car Car

>  <indices>  (30) 
[0, 1, 2]

>  <tasks>  (30) 
probe_placing close_aromatic_ring close_aromatic_ring close_aromatic_ring close_aromatic_ring ring_built build_to_Nd0 close_aromatic_ring no_task close_aromatic_ring close_aromatic_ring close_aromatic_ring close_aromatic_ring

>  <prot_clashes>  (30) 
0

>  <NBS phar>  (30) 
0.24000000000000005

>  <NBS_non-phar>  (30) 
0.7737866083780924

>  <NBS>  (30) 
1.0137866083780924

>  <source_stage>  (30) 
scored

>  <source_iter>  (30) 
12

>  <source_parent_mol>  (30) 
1

>  <source_scenario>  (30) 
1 1 0 0 0 0 0 6 0 1 2 1

>  <source_rank_in_scored_call>  (30) 
0

>  <source_current_task>  (30) 
close_aromatic_ring

>  <scenario>  (30) 
1 1 0 0 0 0 0 6 0 1 2

>  <current_task>  (30) 
no_task

$$$$

     RDKit          3D

 15 17  0  0  0  0  0  0  0  0999 V2000
  -27.6430   -7.3540  -31.5780 C   0  0  0  0  0  0  0  0  0  0  0  0
  -27.3140   -6.5240  -32.5810 N   0  0  0  0  0  0  0  0  0  0  0  0
  -27.3590   -8.6600  -31.3880 N   0  0  0  0  0  0  0  0  0  0  0  0
  -27.7370   -5.2490  -32.5140 C   0  0  0  0  0  0  0  0  0  0  0  0
  -28.4700   -4.7580  -31.5040 N   0  0  0  0  0  0  0  0  0  0  0  0
  -28.8320   -5.5590  -30.4600 C   0  0  0  0  0  0  0  0  0  0  0  0
  -28.3910   -6.8670  -30.5400 C   0  0  0  0  0  0  0  0  0  0  0  0
  -27.9240   -9.0420  -30.2130 C   0  0  0  0  0  0  0  0  0  0  0  0
  -28.5720   -7.9280  -29.6750 C   0  0  0  0  0  0  0  0  0  0  0  0
  -28.0160  -10.2800  -29.5330 C   0  0  0  0  0  0  0  0  0  0  0  0
  -28.4360  -11.3950  -30.2330 C   0  0  0  0  0  0  0  0  0  0  0  0
  -27.5190  -10.5100  -28.2520 C   0  0  0  0  0  0  0  0  0  0  0  0
  -28.3780  -12.6750  -29.7160 C   0  0  0  0  0  0  0  0  0  0  0  0
  -27.8830  -12.8850  -28.4480 C   0  0  0  0  0  0  0  0  0  0  0  0
  -27.4600  -11.8060  -27.7260 C   0  0  0  0  0  0  0  0  0  0  0  0
  1  2  2  0
  1  3  1  0
  1  7  1  0
  2  4  1  0
  3  8  1  0
  4  5  2  0
  5  6  1  0
  6  7  2  0
  7  9  1  0
  8  9  2  0
  8 10  1  0
 10 11  2  0
 10 12  1  0
 11 13  1  0
 12 15  2  0
 13 14  2  0
 14 15  1  0
M  END
>  <name>  (31) 
Car Nac Nd0 Car Nac Car Car Car Car Car Car Car Car Car Car

>  <indices>  (31) 
[0, 1, 2]

>  <tasks>  (31) 
probe_placing close_aromatic_ring close_aromatic_ring close_aromatic_ring close_aromatic_ring ring_built build_to_Nd0 close_aromatic_ring no_task close_aromatic_ring close_aromatic_ring close_aromatic_ring close_aromatic_ring

>  <prot_clashes>  (31) 
1

>  <NBS phar>  (31) 
0.2

>  <NBS_non-phar>  (31) 
0.659320322672526

>  <NBS>  (31) 
0.8593203226725261

>  <source_stage>  (31) 
scored

>  <source_iter>  (31) 
12

>  <source_parent_mol>  (31) 
1

>  <source_scenario>  (31) 
1 1 0 0 0 0 0 6 0 1 2 1

>  <source_rank_in_scored_call>  (31) 
1

>  <source_current_task>  (31) 
close_aromatic_ring

>  <scenario>  (31) 
1 1 0 0 0 0 0 6 0 1 2

>  <current_task>  (31) 
no_task

$$$$

     RDKit          3D

 15 17  0  0  0  0  0  0  0  0999 V2000
  -27.9940   -6.7900  -32.0210 C   0  0  0  0  0  0  0  0  0  0  0  0
  -27.5690   -5.8570  -32.8880 N   0  0  0  0  0  0  0  0  0  0  0  0
  -28.0590   -8.1340  -32.1370 N   0  0  0  0  0  0  0  0  0  0  0  0
  -27.6170   -4.5690  -32.5050 C   0  0  0  0  0  0  0  0  0  0  0  0
  -28.0640   -4.1610  -31.3090 N   0  0  0  0  0  0  0  0  0  0  0  0
  -28.5080   -5.0680  -30.3910 C   0  0  0  0  0  0  0  0  0  0  0  0
  -28.4540   -6.3900  -30.7960 C   0  0  0  0  0  0  0  0  0  0  0  0
  -28.5660   -8.6290  -30.9780 C   0  0  0  0  0  0  0  0  0  0  0  0
  -28.8160   -7.5440  -30.1330 C   0  0  0  0  0  0  0  0  0  0  0  0
  -28.8940  -10.0030  -30.5120 C   0  0  0  0  0  0  0  0  0  0  0  0
  -28.3230  -10.6290  -29.4210 C   0  0  0  0  0  0  0  0  0  0  0  0
  -28.6780  -11.8900  -29.0010 C   0  0  0  0  0  0  0  0  0  0  0  0
  -29.6690  -12.5670  -29.7200 C   0  0  0  0  0  0  0  0  0  0  0  0
  -30.2470  -11.9610  -30.8030 C   0  0  0  0  0  0  0  0  0  0  0  0
  -29.8820  -10.7090  -31.2070 C   0  0  0  0  0  0  0  0  0  0  0  0
  1  2  2  0
  1  3  1  0
  1  7  1  0
  2  4  1  0
  3  8  1  0
  4  5  2  0
  5  6  1  0
  6  7  2  0
  7  9  1  0
  8 10  1  0
  8  9  2  0
 10 15  1  0
 10 11  2  0
 11 12  1  0
 12 13  2  0
 13 14  1  0
 14 15  2  0
M  END
>  <name>  (32) 
Car Nac Nd0 Car Nac Car Car Car Car Car Car Car Car Car Car

>  <indices>  (32) 
[0, 1, 2]

>  <tasks>  (32) 
probe_placing close_aromatic_ring close_aromatic_ring close_aromatic_ring close_aromatic_ring ring_built build_to_Nd0 close_aromatic_ring no_task close_aromatic_ring close_aromatic_ring close_aromatic_ring close_aromatic_ring

>  <prot_clashes>  (32) 
6

>  <NBS phar>  (32) 
0.12

>  <NBS_non-phar>  (32) 
0.5032371520996094

>  <NBS>  (32) 
0.6232371520996094

>  <source_stage>  (32) 
scored

>  <source_iter>  (32) 
12

>  <source_parent_mol>  (32) 
0

>  <source_scenario>  (32) 
1 1 0 0 0 0 0 6 2 0 1 0

>  <source_rank_in_scored_call>  (32) 
0

>  <source_current_task>  (32) 
close_aromatic_ring

>  <scenario>  (32) 
1 1 0 0 0 0 0 6 2 0 1

>  <current_task>  (32) 
no_task

$$$$

     RDKit          3D

 15 17  0  0  0  0  0  0  0  0999 V2000
  -28.0000   -6.7900  -32.0210 C   0  0  0  0  0  0  0  0  0  0  0  0
  -27.5810   -5.8550  -32.8890 N   0  0  0  0  0  0  0  0  0  0  0  0
  -28.0630   -8.1340  -32.1380 N   0  0  0  0  0  0  0  0  0  0  0  0
  -27.6280   -4.5680  -32.5040 C   0  0  0  0  0  0  0  0  0  0  0  0
  -28.0700   -4.1620  -31.3050 N   0  0  0  0  0  0  0  0  0  0  0  0
  -28.5080   -5.0710  -30.3860 C   0  0  0  0  0  0  0  0  0  0  0  0
  -28.4540   -6.3920  -30.7930 C   0  0  0  0  0  0  0  0  0  0  0  0
  -28.5640   -8.6310  -30.9770 C   0  0  0  0  0  0  0  0  0  0  0  0
  -28.8110   -7.5480  -30.1290 C   0  0  0  0  0  0  0  0  0  0  0  0
  -28.8871  -10.0059  -30.5113 C   0  0  0  0  0  0  0  0  0  0  0  0
  -28.3097  -10.6328  -29.4244 C   0  0  0  0  0  0  0  0  0  0  0  0
  -28.6606  -11.8946  -29.0030 C   0  0  0  0  0  0  0  0  0  0  0  0
  -29.6553  -12.5717  -29.7179 C   0  0  0  0  0  0  0  0  0  0  0  0
  -30.2387  -11.9657  -30.7978 C   0  0  0  0  0  0  0  0  0  0  0  0
  -29.8782  -10.7135  -31.2019 C   0  0  0  0  0  0  0  0  0  0  0  0
  1  2  2  0
  1  3  1  0
  1  7  1  0
  2  4  1  0
  3  8  1  0
  4  5  2  0
  5  6  1  0
  6  7  2  0
  7  9  1  0
  8 10  1  0
  8  9  2  0
 10 11  2  0
 11 12  1  0
 12 13  2  0
 13 14  1  0
 10 15  1  0
 14 15  2  0
M  END
>  <name>  (33) 
Car Nac Nd0 Car Nac Car Car Car Car Car Car Car Car Car Car

>  <indices>  (33) 
[0, 1, 2]

>  <tasks>  (33) 
probe_placing close_aromatic_ring close_aromatic_ring close_aromatic_ring close_aromatic_ring ring_built build_to_Nd0 close_aromatic_ring no_task close_aromatic_ring close_aromatic_ring close_aromatic_ring close_aromatic_ring

>  <prot_clashes>  (33) 
6

>  <NBS phar>  (33) 
0.12

>  <NBS_non-phar>  (33) 
0.4930785814921061

>  <NBS>  (33) 
0.613078581492106

>  <source_stage>  (33) 
scored

>  <source_iter>  (33) 
12

>  <source_parent_mol>  (33) 
0

>  <source_scenario>  (33) 
1 1 0 0 0 0 0 6 2 0 1 0

>  <source_rank_in_scored_call>  (33) 
1

>  <source_current_task>  (33) 
close_aromatic_ring

>  <scenario>  (33) 
1 1 0 0 0 0 0 6 2 0 1

>  <current_task>  (33) 
no_task

$$$$

     RDKit          3D

 15 17  0  0  0  0  0  0  0  0999 V2000
  -28.0000   -6.7900  -32.0210 C   0  0  0  0  0  0  0  0  0  0  0  0
  -27.5810   -5.8550  -32.8890 N   0  0  0  0  0  0  0  0  0  0  0  0
  -28.0630   -8.1340  -32.1380 N   0  0  0  0  0  0  0  0  0  0  0  0
  -27.6280   -4.5680  -32.5040 C   0  0  0  0  0  0  0  0  0  0  0  0
  -28.0700   -4.1620  -31.3050 N   0  0  0  0  0  0  0  0  0  0  0  0
  -28.5080   -5.0710  -30.3860 C   0  0  0  0  0  0  0  0  0  0  0  0
  -28.4540   -6.3920  -30.7930 C   0  0  0  0  0  0  0  0  0  0  0  0
  -28.5640   -8.6310  -30.9770 C   0  0  0  0  0  0  0  0  0  0  0  0
  -28.8110   -7.5480  -30.1290 C   0  0  0  0  0  0  0  0  0  0  0  0
  -29.0289   -9.9920  -30.3709 C   0  0  0  0  0  0  0  0  0  0  0  0
  -28.2775  -10.6144  -29.3938 C   0  0  0  0  0  0  0  0  0  0  0  0
  -28.5913  -11.9242  -29.0555 C   0  0  0  0  0  0  0  0  0  0  0  0
  -29.6436  -12.5553  -29.7092 C   0  0  0  0  0  0  0  0  0  0  0  0
  -30.3845  -11.8977  -30.6936 C   0  0  0  0  0  0  0  0  0  0  0  0
  -30.0654  -10.5931  -31.0246 C   0  0  0  0  0  0  0  0  0  0  0  0
  1  2  2  0
  1  3  1  0
  1  7  1  0
  2  4  1  0
  3  8  1  0
  4  5  2  0
  5  6  1  0
  6  7  2  0
  7  9  1  0
  8 10  1  0
  8  9  2  0
 10 11  2  0
 11 12  1  0
 12 13  2  0
 13 14  1  0
 10 15  1  0
 14 15  2  0
M  END
>  <name>  (34) 
Car Nac Nd0 Car Nac Car Car Car Car Car Car Car Car Car Car

>  <indices>  (34) 
[0, 1, 2]

>  <tasks>  (34) 
probe_placing close_aromatic_ring close_aromatic_ring close_aromatic_ring close_aromatic_ring ring_built build_to_Nd0 close_aromatic_ring no_task close_aromatic_ring close_aromatic_ring close_aromatic_ring close_aromatic_ring

>  <prot_clashes>  (34) 
6

>  <NBS phar>  (34) 
0.12

>  <NBS_non-phar>  (34) 
0.48928874333699546

>  <NBS>  (34) 
0.6092887433369955

>  <source_stage>  (34) 
scored

>  <source_iter>  (34) 
12

>  <source_parent_mol>  (34) 
0

>  <source_scenario>  (34) 
1 1 0 0 0 0 0 6 2 0 1 0

>  <source_rank_in_scored_call>  (34) 
2

>  <source_current_task>  (34) 
close_aromatic_ring

>  <scenario>  (34) 
1 1 0 0 0 0 0 6 2 0 1

>  <current_task>  (34) 
no_task

$$$$

     RDKit          3D

 15 17  0  0  0  0  0  0  0  0999 V2000
  -27.9990   -6.7920  -32.0210 C   0  0  0  0  0  0  0  0  0  0  0  0
  -27.5770   -5.8580  -32.8880 N   0  0  0  0  0  0  0  0  0  0  0  0
  -28.0630   -8.1360  -32.1380 N   0  0  0  0  0  0  0  0  0  0  0  0
  -27.6230   -4.5710  -32.5030 C   0  0  0  0  0  0  0  0  0  0  0  0
  -28.0660   -4.1640  -31.3050 N   0  0  0  0  0  0  0  0  0  0  0  0
  -28.5070   -5.0730  -30.3870 C   0  0  0  0  0  0  0  0  0  0  0  0
  -28.4540   -6.3940  -30.7940 C   0  0  0  0  0  0  0  0  0  0  0  0
  -28.5670   -8.6330  -30.9780 C   0  0  0  0  0  0  0  0  0  0  0  0
  -28.8140   -7.5490  -30.1300 C   0  0  0  0  0  0  0  0  0  0  0  0
  -29.0350   -9.9930  -30.3730 C   0  0  0  0  0  0  0  0  0  0  0  0
  -28.2850  -10.6160  -29.3950 C   0  0  0  0  0  0  0  0  0  0  0  0
  -28.6010  -11.9260  -29.0560 C   0  0  0  0  0  0  0  0  0  0  0  0
  -29.6540  -12.5550  -29.7120 C   0  0  0  0  0  0  0  0  0  0  0  0
  -30.3920  -11.8970  -30.6980 C   0  0  0  0  0  0  0  0  0  0  0  0
  -30.0700  -10.5920  -31.0280 C   0  0  0  0  0  0  0  0  0  0  0  0
  1  2  2  0
  1  3  1  0
  1  7  1  0
  2  4  1  0
  3  8  1  0
  4  5  2  0
  5  6  1  0
  6  7  2  0
  7  9  1  0
  8 10  1  0
  8  9  2  0
 10 15  1  0
 10 11  2  0
 11 12  1  0
 12 13  2  0
 13 14  1  0
 14 15  2  0
M  END
>  <name>  (35) 
Car Nac Nd0 Car Nac Car Car Car Car Car Car Car Car Car Car

>  <indices>  (35) 
[0, 1, 2]

>  <tasks>  (35) 
probe_placing close_aromatic_ring close_aromatic_ring close_aromatic_ring close_aromatic_ring ring_built build_to_Nd0 close_aromatic_ring no_task close_aromatic_ring close_aromatic_ring close_aromatic_ring close_aromatic_ring

>  <prot_clashes>  (35) 
6

>  <NBS phar>  (35) 
0.1

>  <NBS_non-phar>  (35) 
0.4822134017944336

>  <NBS>  (35) 
0.5822134017944336

>  <source_stage>  (35) 
scored

>  <source_iter>  (35) 
12

>  <source_parent_mol>  (35) 
0

>  <source_scenario>  (35) 
1 1 0 0 0 0 0 6 2 0 1 0

>  <source_rank_in_scored_call>  (35) 
3

>  <source_current_task>  (35) 
close_aromatic_ring

>  <scenario>  (35) 
1 1 0 0 0 0 0 6 2 0 1

>  <current_task>  (35) 
no_task

$$$$

     RDKit          3D

 14 16  0  0  0  0  0  0  0  0999 V2000
  -27.7350   -7.5140  -31.7160 C   0  0  0  0  0  0  0  0  0  0  0  0
  -27.6740   -6.6330  -32.7280 N   0  0  0  0  0  0  0  0  0  0  0  0
  -27.5770   -8.8540  -31.7050 N   0  0  0  0  0  0  0  0  0  0  0  0
  -27.8750   -5.3320  -32.4490 C   0  0  0  0  0  0  0  0  0  0  0  0
  -28.1340   -4.8630  -31.2200 N   0  0  0  0  0  0  0  0  0  0  0  0
  -28.2070   -5.7150  -30.1570 C   0  0  0  0  0  0  0  0  0  0  0  0
  -27.9980   -7.0490  -30.4550 C   0  0  0  0  0  0  0  0  0  0  0  0
  -27.7370   -9.2820  -30.4260 C   0  0  0  0  0  0  0  0  0  0  0  0
  -28.0010   -8.1600  -29.6360 C   0  0  0  0  0  0  0  0  0  0  0  0
  -28.1920   -8.3690  -28.2370 C   0  0  0  0  0  0  0  0  0  0  0  0
  -29.2100   -9.0790  -27.6700 N   0  0  0  0  0  0  0  0  0  0  0  0
  -27.3390   -8.0120  -27.2170 C   0  0  0  0  0  0  0  0  0  0  0  0
  -28.9960   -9.1630  -26.3350 C   0  0  0  0  0  0  0  0  0  0  0  0
  -27.8330   -8.5060  -26.0140 C   0  0  0  0  0  0  0  0  0  0  0  0
  1  2  2  0
  1  3  1  0
  1  7  1  0
  2  4  1  0
  3  8  1  0
  4  5  2  0
  5  6  1  0
  6  7  2  0
  7  9  1  0
  8  9  2  0
  9 10  1  0
 10 11  1  0
 10 12  2  0
 11 13  1  0
 12 14  1  0
 13 14  2  0
M  END
>  <name>  (36) 
Car Nac Nd0 Car Nac Car Car Car Car Car Nd0 Car Car Car

>  <indices>  (36) 
[0, 1, 2]

>  <tasks>  (36) 
probe_placing close_aromatic_ring close_aromatic_ring close_aromatic_ring close_aromatic_ring ring_built build_to_Nd0 close_aromatic_ring no_task close_aromatic_ring close_aromatic_ring close_aromatic_ring

>  <prot_clashes>  (36) 
6

>  <NBS phar>  (36) 
0.44000000000000006

>  <NBS_non-phar>  (36) 
0.5787044252668109

>  <NBS>  (36) 
1.018704425266811

>  <source_stage>  (36) 
scored

>  <source_iter>  (36) 
11

>  <source_parent_mol>  (36) 
0

>  <source_scenario>  (36) 
1 1 0 0 0 0 0 7 0 1 0

>  <source_rank_in_scored_call>  (36) 
0

>  <source_current_task>  (36) 
close_aromatic_ring

>  <scenario>  (36) 
1 1 0 0 0 0 0 7 0 1

>  <current_task>  (36) 
no_task

$$$$

     RDKit          3D

 14 16  0  0  0  0  0  0  0  0999 V2000
  -27.8239   -7.5531  -31.2000 C   0  0  0  0  0  0  0  0  0  0  0  0
  -27.6016   -6.6486  -32.1676 N   0  0  0  0  0  0  0  0  0  0  0  0
  -27.6904   -8.8965  -31.2029 N   0  0  0  0  0  0  0  0  0  0  0  0
  -27.8202   -5.3522  -31.8861 C   0  0  0  0  0  0  0  0  0  0  0  0
  -28.2477   -4.9084  -30.6946 N   0  0  0  0  0  0  0  0  0  0  0  0
  -28.4888   -5.7848  -29.6772 C   0  0  0  0  0  0  0  0  0  0  0  0
  -28.2603   -7.1147  -29.9793 C   0  0  0  0  0  0  0  0  0  0  0  0
  -28.0415   -9.3527  -29.9729 C   0  0  0  0  0  0  0  0  0  0  0  0
  -28.4000   -8.2458  -29.1990 C   0  0  0  0  0  0  0  0  0  0  0  0
  -28.7959   -8.4845  -27.8491 C   0  0  0  0  0  0  0  0  0  0  0  0
  -29.8970   -9.1891  -27.4556 N   0  0  0  0  0  0  0  0  0  0  0  0
  -28.0952   -8.1714  -26.7069 C   0  0  0  0  0  0  0  0  0  0  0  0
  -29.8809   -9.3103  -26.1068 C   0  0  0  0  0  0  0  0  0  0  0  0
  -28.7660   -8.6846  -25.6020 C   0  0  0  0  0  0  0  0  0  0  0  0
  1  2  2  0
  1  3  1  0
  2  4  1  0
  4  5  2  0
  5  6  1  0
  6  7  2  0
  1  7  1  0
  3  8  1  0
  8  9  2  0
  7  9  1  0
  9 10  1  0
 10 11  1  0
 10 12  2  0
 11 13  1  0
 12 14  1  0
 13 14  2  0
M  END
>  <name>  (37) 
Car Nac Nd0 Car Nac Car Car Car Car Car Nd0 Car Car Car

>  <indices>  (37) 
[0, 1, 2]

>  <tasks>  (37) 
probe_placing close_aromatic_ring close_aromatic_ring close_aromatic_ring close_aromatic_ring ring_built build_to_Nd0 close_aromatic_ring no_task close_aromatic_ring close_aromatic_ring close_aromatic_ring

>  <prot_clashes>  (37) 
3

>  <NBS phar>  (37) 
0.34

>  <NBS_non-phar>  (37) 
0.6243414878845215

>  <NBS>  (37) 
0.9643414878845216

>  <source_stage>  (37) 
scored

>  <source_iter>  (37) 
11

>  <source_parent_mol>  (37) 
0

>  <source_scenario>  (37) 
1 1 0 0 0 0 0 7 0 1 0

>  <source_rank_in_scored_call>  (37) 
1

>  <source_current_task>  (37) 
close_aromatic_ring

>  <scenario>  (37) 
1 1 0 0 0 0 0 7 0 1

>  <current_task>  (37) 
no_task

$$$$

     RDKit          3D

 14 16  0  0  0  0  0  0  0  0999 V2000
  -27.8239   -7.5531  -31.2000 C   0  0  0  0  0  0  0  0  0  0  0  0
  -27.6016   -6.6486  -32.1676 N   0  0  0  0  0  0  0  0  0  0  0  0
  -27.6904   -8.8965  -31.2029 N   0  0  0  0  0  0  0  0  0  0  0  0
  -27.8202   -5.3522  -31.8861 C   0  0  0  0  0  0  0  0  0  0  0  0
  -28.2477   -4.9084  -30.6946 N   0  0  0  0  0  0  0  0  0  0  0  0
  -28.4888   -5.7848  -29.6772 C   0  0  0  0  0  0  0  0  0  0  0  0
  -28.2603   -7.1147  -29.9793 C   0  0  0  0  0  0  0  0  0  0  0  0
  -28.0415   -9.3527  -29.9729 C   0  0  0  0  0  0  0  0  0  0  0  0
  -28.4000   -8.2458  -29.1990 C   0  0  0  0  0  0  0  0  0  0  0  0
  -28.8163   -8.4957  -27.8397 C   0  0  0  0  0  0  0  0  0  0  0  0
  -29.8922   -9.1954  -27.4278 N   0  0  0  0  0  0  0  0  0  0  0  0
  -28.1081   -8.1778  -26.6979 C   0  0  0  0  0  0  0  0  0  0  0  0
  -28.7563   -8.6864  -25.5876 C   0  0  0  0  0  0  0  0  0  0  0  0
  -29.8813   -9.3228  -26.0989 C   0  0  0  0  0  0  0  0  0  0  0  0
  1  2  2  0
  1  3  1  0
  2  4  1  0
  4  5  2  0
  5  6  1  0
  6  7  2  0
  1  7  1  0
  3  8  1  0
  8  9  2  0
  7  9  1  0
  9 10  1  0
 10 11  1  0
 10 12  2  0
 12 13  1  0
 13 14  2  0
 11 14  1  0
M  END
>  <name>  (38) 
Car Nac Nd0 Car Nac Car Car Car Car Car Nd0 Car Car Car

>  <indices>  (38) 
[0, 1, 2]

>  <tasks>  (38) 
probe_placing close_aromatic_ring close_aromatic_ring close_aromatic_ring close_aromatic_ring ring_built build_to_Nd0 close_aromatic_ring no_task close_aromatic_ring close_aromatic_ring close_aromatic_ring

>  <prot_clashes>  (38) 
3

>  <NBS phar>  (38) 
0.34

>  <NBS_non-phar>  (38) 
0.6217881611415318

>  <NBS>  (38) 
0.9617881611415318

>  <source_stage>  (38) 
scored

>  <source_iter>  (38) 
11

>  <source_parent_mol>  (38) 
1

>  <source_scenario>  (38) 
1 1 0 0 0 0 0 7 0 1 1

>  <source_rank_in_scored_call>  (38) 
1

>  <source_current_task>  (38) 
close_aromatic_ring

>  <scenario>  (38) 
1 1 0 0 0 0 0 7 0 1

>  <current_task>  (38) 
no_task

$$$$

     RDKit          3D

 14 16  0  0  0  0  0  0  0  0999 V2000
  -27.8830   -7.3900  -31.9000 C   0  0  0  0  0  0  0  0  0  0  0  0
  -27.7480   -6.4740  -32.8720 N   0  0  0  0  0  0  0  0  0  0  0  0
  -27.9940   -8.7330  -31.9660 N   0  0  0  0  0  0  0  0  0  0  0  0
  -27.6570   -5.1800  -32.5150 C   0  0  0  0  0  0  0  0  0  0  0  0
  -27.6950   -4.7500  -31.2450 N   0  0  0  0  0  0  0  0  0  0  0  0
  -27.8310   -5.6410  -30.2190 C   0  0  0  0  0  0  0  0  0  0  0  0
  -27.9220   -6.9670  -30.5990 C   0  0  0  0  0  0  0  0  0  0  0  0
  -28.1080   -9.2060  -30.6980 C   0  0  0  0  0  0  0  0  0  0  0  0
  -28.0650   -8.1080  -29.8340 C   0  0  0  0  0  0  0  0  0  0  0  0
  -28.1730   -8.3750  -28.4200 C   0  0  0  0  0  0  0  0  0  0  0  0
  -29.2220   -8.9110  -27.7650 N   0  0  0  0  0  0  0  0  0  0  0  0
  -27.1630   -8.2550  -27.4870 C   0  0  0  0  0  0  0  0  0  0  0  0
  -27.5990   -8.7200  -26.2610 C   0  0  0  0  0  0  0  0  0  0  0  0
  -28.9090   -9.1260  -26.4850 C   0  0  0  0  0  0  0  0  0  0  0  0
  1  2  2  0
  1  3  1  0
  1  7  1  0
  2  4  1  0
  3  8  1  0
  4  5  2  0
  5  6  1  0
  6  7  2  0
  7  9  1  0
  8  9  2  0
  9 10  1  0
 10 11  1  0
 10 12  2  0
 11 14  1  0
 12 13  1  0
 13 14  2  0
M  END
>  <name>  (39) 
Car Nac Nd0 Car Nac Car Car Car Car Car Nd0 Car Car Car

>  <indices>  (39) 
[0, 1, 2]

>  <tasks>  (39) 
probe_placing close_aromatic_ring close_aromatic_ring close_aromatic_ring close_aromatic_ring ring_built build_to_Nd0 close_aromatic_ring no_task close_aromatic_ring close_aromatic_ring close_aromatic_ring

>  <prot_clashes>  (39) 
4

>  <NBS phar>  (39) 
0.22000000000000003

>  <NBS_non-phar>  (39) 
0.5936126027788434

>  <NBS>  (39) 
0.8136126027788435

>  <source_stage>  (39) 
scored

>  <source_iter>  (39) 
11

>  <source_parent_mol>  (39) 
1

>  <source_scenario>  (39) 
1 1 0 0 0 0 0 7 0 1 1

>  <source_rank_in_scored_call>  (39) 
3

>  <source_current_task>  (39) 
close_aromatic_ring

>  <scenario>  (39) 
1 1 0 0 0 0 0 7 0 1

>  <current_task>  (39) 
no_task

$$$$

     RDKit          3D

 16 18  0  0  0  0  0  0  0  0999 V2000
  -27.5930   -7.5120  -31.6570 C   0  0  0  0  0  0  0  0  0  0  0  0
  -27.7030   -6.6030  -32.6390 N   0  0  0  0  0  0  0  0  0  0  0  0
  -27.2160   -8.8080  -31.6950 N   0  0  0  0  0  0  0  0  0  0  0  0
  -28.1060   -5.3620  -32.3120 C   0  0  0  0  0  0  0  0  0  0  0  0
  -28.4070   -4.9800  -31.0620 N   0  0  0  0  0  0  0  0  0  0  0  0
  -28.3120   -5.8650  -30.0270 C   0  0  0  0  0  0  0  0  0  0  0  0
  -27.8950   -7.1360  -30.3760 C   0  0  0  0  0  0  0  0  0  0  0  0
  -27.2700   -9.2960  -30.4290 C   0  0  0  0  0  0  0  0  0  0  0  0
  -27.6940   -8.2570  -29.5950 C   0  0  0  0  0  0  0  0  0  0  0  0
  -27.7967   -8.5628  -28.2270 C   0  0  0  0  0  0  0  0  0  0  0  0
  -26.7860   -8.5715  -27.3787 C   0  0  0  0  0  0  0  0  0  0  0  0
  -26.9934   -8.8577  -26.0100 N   0  0  0  0  0  0  0  0  0  0  0  0
  -28.2612   -9.1585  -25.4035 C   0  0  0  0  0  0  0  0  0  0  0  0
  -29.1210   -8.8555  -27.7086 C   0  0  0  0  0  0  0  0  0  0  0  0
  -29.3065   -9.1184  -26.4474 C   0  0  0  0  0  0  0  0  0  0  0  0
  -28.4477   -9.4108  -24.1994 O   0  0  0  0  0  0  0  0  0  0  0  0
  1  2  2  0
  1  3  1  0
  1  7  1  0
  2  4  1  0
  3  8  1  0
  4  5  2  0
  5  6  1  0
  6  7  2  0
  7  9  1  0
  8  9  2  0
  9 10  1  0
 10 14  1  0
 10 11  2  0
 11 12  1  0
 12 13  1  0
 13 15  1  0
 14 15  2  0
 13 16  2  0
M  END
>  <name>  (40) 
Car Nac Nd0 Car Nac Car Car Car Car Car Car Nd0 Car Car Car .=O

>  <indices>  (40) 
[0, 1, 2]

>  <tasks>  (40) 
probe_placing close_aromatic_ring close_aromatic_ring close_aromatic_ring close_aromatic_ring ring_built build_to_Nd0 close_aromatic_ring no_task close_aromatic_ring close_aromatic_ring close_aromatic_ring close_aromatic_ring close_aromatic_ring

>  <prot_clashes>  (40) 
6

>  <NBS phar>  (40) 
0.22000000000000003

>  <NBS_non-phar>  (40) 
0.4973786175251007

>  <NBS>  (40) 
0.7173786175251007

>  <source_stage>  (40) 
scored

>  <source_iter>  (40) 
13

>  <source_parent_mol>  (40) 
0

>  <source_scenario>  (40) 
1 1 0 0 0 0 0 7 1 0 0 2 0

>  <source_rank_in_scored_call>  (40) 
7

>  <source_current_task>  (40) 
fix_Car

>  <scenario>  (40) 
1 1 0 0 0 0 0 7 1 0 0 2

>  <current_task>  (40) 
no_task

$$$$

     RDKit          3D

 16 18  0  0  0  0  0  0  0  0999 V2000
  -27.3520   -7.4450  -31.6090 C   0  0  0  0  0  0  0  0  0  0  0  0
  -27.2560   -6.4810  -32.5400 N   0  0  0  0  0  0  0  0  0  0  0  0
  -26.6920   -8.6150  -31.4840 N   0  0  0  0  0  0  0  0  0  0  0  0
  -28.0480   -5.4010  -32.4170 C   0  0  0  0  0  0  0  0  0  0  0  0
  -28.9300   -5.2300  -31.4220 N   0  0  0  0  0  0  0  0  0  0  0  0
  -29.0680   -6.1800  -30.4510 C   0  0  0  0  0  0  0  0  0  0  0  0
  -28.2470   -7.2840  -30.5870 C   0  0  0  0  0  0  0  0  0  0  0  0
  -27.1540   -9.2370  -30.3680 C   0  0  0  0  0  0  0  0  0  0  0  0
  -28.1290   -8.4120  -29.7990 C   0  0  0  0  0  0  0  0  0  0  0  0
  -28.7600   -8.9920  -28.5280 C   0  0  0  0  0  0  0  0  0  0  0  0
  -28.2140   -8.7670  -27.3450 C   0  0  0  0  0  0  0  0  0  0  0  0
  -28.7960   -9.2440  -26.0660 C   0  0  0  0  0  0  0  0  0  0  0  0
  -30.0160   -9.9730  -26.2780 N   0  0  0  0  0  0  0  0  0  0  0  0
  -30.5970  -10.2100  -27.5550 C   0  0  0  0  0  0  0  0  0  0  0  0
  -30.0030   -9.7450  -28.6360 C   0  0  0  0  0  0  0  0  0  0  0  0
  -28.2900   -9.0381  -24.9480 O   0  0  0  0  0  0  0  0  0  0  0  0
  1  2  2  0
  1  3  1  0
  1  7  1  0
  2  4  1  0
  3  8  1  0
  4  5  2  0
  5  6  1  0
  6  7  2  0
  7  9  1  0
  8  9  2  0
  9 10  1  0
 10 15  1  0
 10 11  2  0
 11 12  1  0
 12 13  1  0
 13 14  1  0
 14 15  2  0
 12 16  2  0
M  END
>  <name>  (41) 
Car Nac Nd0 Car Nac Car Car Car Car Car Car Car Nd0 Car Car .=O

>  <indices>  (41) 
[0, 1, 2]

>  <tasks>  (41) 
probe_placing close_aromatic_ring close_aromatic_ring close_aromatic_ring close_aromatic_ring ring_built build_to_Nd0 close_aromatic_ring no_task close_aromatic_ring close_aromatic_ring close_aromatic_ring close_aromatic_ring close_aromatic_ring

>  <prot_clashes>  (41) 
7

>  <NBS phar>  (41) 
0.32

>  <NBS_non-phar>  (41) 
0.461551308631897

>  <NBS>  (41) 
0.781551308631897

>  <source_stage>  (41) 
scored

>  <source_iter>  (41) 
13

>  <source_parent_mol>  (41) 
0

>  <source_scenario>  (41) 
1 1 0 0 0 0 0 7 1 1 0 0 0

>  <source_rank_in_scored_call>  (41) 
9

>  <source_current_task>  (41) 
fix_Car

>  <scenario>  (41) 
1 1 0 0 0 0 0 7 1 1 0 0

>  <current_task>  (41) 
no_task

$$$$

     RDKit          3D

 16 18  0  0  0  0  0  0  0  0999 V2000
  -27.3700   -7.3930  -31.5590 C   0  0  0  0  0  0  0  0  0  0  0  0
  -27.3200   -6.4530  -32.5180 N   0  0  0  0  0  0  0  0  0  0  0  0
  -26.6370   -8.5120  -31.3860 N   0  0  0  0  0  0  0  0  0  0  0  0
  -28.1840   -5.4250  -32.4420 C   0  0  0  0  0  0  0  0  0  0  0  0
  -29.0950   -5.2840  -31.4690 N   0  0  0  0  0  0  0  0  0  0  0  0
  -29.1890   -6.2120  -30.4710 C   0  0  0  0  0  0  0  0  0  0  0  0
  -28.2940   -7.2620  -30.5590 C   0  0  0  0  0  0  0  0  0  0  0  0
  -27.0780   -9.1300  -30.2600 C   0  0  0  0  0  0  0  0  0  0  0  0
  -28.1170   -8.3550  -29.7340 C   0  0  0  0  0  0  0  0  0  0  0  0
  -28.7320   -8.9380  -28.4570 C   0  0  0  0  0  0  0  0  0  0  0  0
  -28.2260   -8.6420  -27.2720 C   0  0  0  0  0  0  0  0  0  0  0  0
  -28.8000   -9.1190  -25.9890 C   0  0  0  0  0  0  0  0  0  0  0  0
  -29.9640   -9.9340  -26.2000 N   0  0  0  0  0  0  0  0  0  0  0  0
  -30.5030  -10.2470  -27.4790 C   0  0  0  0  0  0  0  0  0  0  0  0
  -29.9200   -9.7760  -28.5630 C   0  0  0  0  0  0  0  0  0  0  0  0
  -28.3310   -8.8460  -24.8700 O   0  0  0  0  0  0  0  0  0  0  0  0
  1  2  2  0
  1  3  1  0
  1  7  1  0
  2  4  1  0
  3  8  1  0
  4  5  2  0
  5  6  1  0
  6  7  2  0
  7  9  1  0
  8  9  2  0
  9 10  1  0
 10 15  1  0
 10 11  2  0
 11 12  1  0
 12 13  1  0
 12 16  2  0
 13 14  1  0
 14 15  2  0
M  END
>  <name>  (42) 
Car Nac Nd0 Car Nac Car Car Car Car Car Car Car Nd0 Car Car .=O

>  <indices>  (42) 
[0, 1, 2]

>  <tasks>  (42) 
probe_placing close_aromatic_ring close_aromatic_ring close_aromatic_ring close_aromatic_ring ring_built build_to_Nd0 close_aromatic_ring no_task close_aromatic_ring close_aromatic_ring close_aromatic_ring close_aromatic_ring close_aromatic_ring

>  <prot_clashes>  (42) 
7

>  <NBS phar>  (42) 
0.32

>  <NBS_non-phar>  (42) 
0.45254847407341003

>  <NBS>  (42) 
0.7725484740734101

>  <source_stage>  (42) 
scored

>  <source_iter>  (42) 
13

>  <source_parent_mol>  (42) 
0

>  <source_scenario>  (42) 
1 1 0 0 0 0 0 7 1 1 0 0 0

>  <source_rank_in_scored_call>  (42) 
12

>  <source_current_task>  (42) 
fix_Car

>  <scenario>  (42) 
1 1 0 0 0 0 0 7 1 1 0 0

>  <current_task>  (42) 
no_task

$$$$

     RDKit          3D

 14 16  0  0  0  0  0  0  0  0999 V2000
  -27.8239   -7.5531  -31.2000 C   0  0  0  0  0  0  0  0  0  0  0  0
  -27.6016   -6.6486  -32.1676 N   0  0  0  0  0  0  0  0  0  0  0  0
  -27.6904   -8.8965  -31.2029 N   0  0  0  0  0  0  0  0  0  0  0  0
  -27.8202   -5.3522  -31.8861 C   0  0  0  0  0  0  0  0  0  0  0  0
  -28.2477   -4.9084  -30.6946 N   0  0  0  0  0  0  0  0  0  0  0  0
  -28.4888   -5.7848  -29.6772 C   0  0  0  0  0  0  0  0  0  0  0  0
  -28.2603   -7.1147  -29.9793 C   0  0  0  0  0  0  0  0  0  0  0  0
  -28.0415   -9.3527  -29.9729 C   0  0  0  0  0  0  0  0  0  0  0  0
  -28.4000   -8.2458  -29.1990 C   0  0  0  0  0  0  0  0  0  0  0  0
  -28.8155   -8.5055  -27.8377 C   0  0  0  0  0  0  0  0  0  0  0  0
  -27.9987   -8.7307  -26.7402 C   0  0  0  0  0  0  0  0  0  0  0  0
  -30.0936   -8.9258  -27.4728 C   0  0  0  0  0  0  0  0  0  0  0  0
  -30.0196   -9.3975  -26.1574 C   0  0  0  0  0  0  0  0  0  0  0  0
  -28.7377   -9.2671  -25.7387 N   0  0  0  0  0  0  0  0  0  0  0  0
  1  2  2  0
  1  3  1  0
  2  4  1  0
  4  5  2  0
  5  6  1  0
  6  7  2  0
  1  7  1  0
  3  8  1  0
  8  9  2  0
  7  9  1  0
  9 10  1  0
 10 11  2  0
 10 12  1  0
 12 13  2  0
 13 14  1  0
 11 14  1  0
M  END
>  <name>  (43) 
Car Nac Nd0 Car Nac Car Car Car Car Car Car Car Car Nd0

>  <indices>  (43) 
[0, 1, 2]

>  <tasks>  (43) 
probe_placing close_aromatic_ring close_aromatic_ring close_aromatic_ring close_aromatic_ring ring_built build_to_Nd0 close_aromatic_ring no_task close_aromatic_ring close_aromatic_ring close_aromatic_ring

>  <prot_clashes>  (43) 
6

>  <NBS phar>  (43) 
0.34

>  <NBS_non-phar>  (43) 
0.654031685420445

>  <NBS>  (43) 
0.994031685420445

>  <source_stage>  (43) 
scored

>  <source_iter>  (43) 
11

>  <source_parent_mol>  (43) 
2

>  <source_scenario>  (43) 
1 1 0 0 0 0 0 7 1 2 2

>  <source_rank_in_scored_call>  (43) 
0

>  <source_current_task>  (43) 
close_aromatic_ring

>  <scenario>  (43) 
1 1 0 0 0 0 0 7 1 2

>  <current_task>  (43) 
no_task

$$$$

     RDKit          3D

 16 18  0  0  0  0  0  0  0  0999 V2000
  -27.8779   -7.5815  -31.1793 C   0  0  0  0  0  0  0  0  0  0  0  0
  -27.5855   -6.6352  -32.0772 N   0  0  0  0  0  0  0  0  0  0  0  0
  -27.7543   -8.9219  -31.2047 N   0  0  0  0  0  0  0  0  0  0  0  0
  -27.7958   -5.3090  -31.8400 C   0  0  0  0  0  0  0  0  0  0  0  0
  -28.3299   -4.9112  -30.6330 C   0  0  0  0  0  0  0  0  0  0  0  0
  -28.6380   -5.8933  -29.6902 C   0  0  0  0  0  0  0  0  0  0  0  0
  -28.4146   -7.2391  -29.9548 C   0  0  0  0  0  0  0  0  0  0  0  0
  -28.2005   -9.4396  -30.0231 C   0  0  0  0  0  0  0  0  0  0  0  0
  -28.6205   -8.3878  -29.2244 C   0  0  0  0  0  0  0  0  0  0  0  0
  -29.1532   -8.2725  -27.9633 N   0  0  0  0  0  0  0  0  0  0  0  0
  -29.3117   -9.4913  -27.3656 C   0  0  0  0  0  0  0  0  0  0  0  0
  -28.4190  -10.1772  -26.6128 N   0  0  0  0  0  0  0  0  0  0  0  0
  -28.6400  -11.3606  -26.0472 C   0  0  0  0  0  0  0  0  0  0  0  0
  -29.8964  -11.9344  -26.2516 C   0  0  0  0  0  0  0  0  0  0  0  0
  -30.8728  -11.3162  -27.0017 C   0  0  0  0  0  0  0  0  0  0  0  0
  -30.5485  -10.0881  -27.5491 C   0  0  0  0  0  0  0  0  0  0  0  0
  1  2  2  0
  1  3  1  0
  2  4  1  0
  4  5  2  0
  5  6  1  0
  6  7  2  0
  1  7  1  0
  3  8  1  0
  8  9  2  0
  7  9  1  0
  9 10  1  0
 10 11  1  0
 11 12  2  0
 12 13  1  0
 13 14  2  0
 14 15  1  0
 15 16  2  0
 11 16  1  0
M  END
>  <name>  (44) 
Car Nac Nd0 Car Car Car Car Car Car Nd0 Car Nac Car Car Car Car

>  <indices>  (44) 
[0, 1, 2]

>  <tasks>  (44) 
probe_placing close_aromatic_ring close_aromatic_ring close_aromatic_ring close_aromatic_ring ring_built build_to_Nd0 close_aromatic_ring no_task build_to_Nd0 close_aromatic_ring close_aromatic_ring close_aromatic_ring close_aromatic_ring

>  <prot_clashes>  (44) 
2

>  <NBS phar>  (44) 
0.3

>  <NBS_non-phar>  (44) 
0.625921368598938

>  <NBS>  (44) 
0.925921368598938

>  <source_stage>  (44) 
scored

>  <source_iter>  (44) 
13

>  <source_parent_mol>  (44) 
1

>  <source_scenario>  (44) 
1 1 2 0 0 0 0 0 0 0 0 0 1

>  <source_rank_in_scored_call>  (44) 
0

>  <source_current_task>  (44) 
close_aromatic_ring

>  <scenario>  (44) 
1 1 2 0 0 0 0 0 0 0 0 0

>  <current_task>  (44) 
no_task

$$$$

     RDKit          3D

 16 18  0  0  0  0  0  0  0  0999 V2000
  -27.7750   -7.5860  -31.7020 C   0  0  0  0  0  0  0  0  0  0  0  0
  -27.3700   -6.6050  -32.5160 N   0  0  0  0  0  0  0  0  0  0  0  0
  -27.5830   -8.9180  -31.7270 N   0  0  0  0  0  0  0  0  0  0  0  0
  -27.6850   -5.2960  -32.3000 C   0  0  0  0  0  0  0  0  0  0  0  0
  -28.4480   -4.9520  -31.2050 C   0  0  0  0  0  0  0  0  0  0  0  0
  -28.8740   -5.9710  -30.3500 C   0  0  0  0  0  0  0  0  0  0  0  0
  -28.5410   -7.2980  -30.5910 C   0  0  0  0  0  0  0  0  0  0  0  0
  -28.2110   -9.4850  -30.6550 C   0  0  0  0  0  0  0  0  0  0  0  0
  -28.8190   -8.4730  -29.9290 C   0  0  0  0  0  0  0  0  0  0  0  0
  -29.5770   -8.4130  -28.7850 N   0  0  0  0  0  0  0  0  0  0  0  0
  -29.7820   -9.6520  -28.2460 C   0  0  0  0  0  0  0  0  0  0  0  0
  -29.0080  -10.3150  -27.3540 N   0  0  0  0  0  0  0  0  0  0  0  0
  -29.2700  -11.5220  -26.8570 C   0  0  0  0  0  0  0  0  0  0  0  0
  -30.4390  -12.1460  -27.2980 C   0  0  0  0  0  0  0  0  0  0  0  0
  -31.2920  -11.5540  -28.2030 C   0  0  0  0  0  0  0  0  0  0  0  0
  -30.9350  -10.2990  -28.6620 C   0  0  0  0  0  0  0  0  0  0  0  0
  1  2  2  0
  1  3  1  0
  1  7  1  0
  2  4  1  0
  3  8  1  0
  4  5  2  0
  5  6  1  0
  6  7  2  0
  7  9  1  0
  8  9  2  0
  9 10  1  0
 10 11  1  0
 11 16  1  0
 11 12  2  0
 12 13  1  0
 13 14  2  0
 14 15  1  0
 15 16  2  0
M  END
>  <name>  (45) 
Car Nac Nd0 Car Car Car Car Car Car Nd0 Car Nac Car Car Car Car

>  <indices>  (45) 
[0, 1, 2]

>  <tasks>  (45) 
probe_placing close_aromatic_ring close_aromatic_ring close_aromatic_ring close_aromatic_ring ring_built build_to_Nd0 close_aromatic_ring no_task build_to_Nd0 close_aromatic_ring close_aromatic_ring close_aromatic_ring close_aromatic_ring

>  <prot_clashes>  (45) 
6

>  <NBS phar>  (45) 
0.2

>  <NBS_non-phar>  (45) 
0.4751961827278137

>  <NBS>  (45) 
0.6751961827278137

>  <source_stage>  (45) 
scored

>  <source_iter>  (45) 
13

>  <source_parent_mol>  (45) 
1

>  <source_scenario>  (45) 
1 1 2 0 0 0 0 0 0 0 0 0 1

>  <source_rank_in_scored_call>  (45) 
1

>  <source_current_task>  (45) 
close_aromatic_ring

>  <scenario>  (45) 
1 1 2 0 0 0 0 0 0 0 0 0

>  <current_task>  (45) 
no_task

$$$$

     RDKit          3D

 16 18  0  0  0  0  0  0  0  0999 V2000
  -28.3370   -8.0300  -32.2110 C   0  0  0  0  0  0  0  0  0  0  0  0
  -27.8670   -6.9750  -32.8880 N   0  0  0  0  0  0  0  0  0  0  0  0
  -28.4580   -9.3310  -32.5330 N   0  0  0  0  0  0  0  0  0  0  0  0
  -27.8360   -5.7180  -32.3600 C   0  0  0  0  0  0  0  0  0  0  0  0
  -28.3020   -5.5080  -31.0790 C   0  0  0  0  0  0  0  0  0  0  0  0
  -28.7930   -6.6030  -30.3660 C   0  0  0  0  0  0  0  0  0  0  0  0
  -28.8160   -7.8750  -30.9250 C   0  0  0  0  0  0  0  0  0  0  0  0
  -29.0040  -10.0090  -31.4810 C   0  0  0  0  0  0  0  0  0  0  0  0
  -29.2340   -9.1010  -30.4600 C   0  0  0  0  0  0  0  0  0  0  0  0
  -29.7850   -9.5620  -29.2880 N   0  0  0  0  0  0  0  0  0  0  0  0
  -29.0080   -9.5990  -28.0140 C   0  0  0  0  0  0  0  0  0  0  0  0
  -28.7780  -10.8310  -27.4400 C   0  0  0  0  0  0  0  0  0  0  0  0
  -28.0620  -10.8490  -26.2920 N   0  0  0  0  0  0  0  0  0  0  0  0
  -27.5960   -9.7160  -25.7350 C   0  0  0  0  0  0  0  0  0  0  0  0
  -27.8230   -8.4820  -26.3060 C   0  0  0  0  0  0  0  0  0  0  0  0
  -28.5520   -8.4130  -27.4820 C   0  0  0  0  0  0  0  0  0  0  0  0
  1  2  2  0
  1  3  1  0
  1  7  1  0
  2  4  1  0
  3  8  1  0
  4  5  2  0
  5  6  1  0
  6  7  2  0
  7  9  1  0
  8  9  2  0
  9 10  1  0
 10 11  1  0
 11 16  1  0
 11 12  2  0
 12 13  1  0
 13 14  2  0
 14 15  1  0
 15 16  2  0
M  END
>  <name>  (46) 
Car Nac Nd0 Car Car Car Car Car Car Nd0 Car Car Nac Car Car Car

>  <indices>  (46) 
[0, 1, 2]

>  <tasks>  (46) 
probe_placing close_aromatic_ring close_aromatic_ring close_aromatic_ring close_aromatic_ring ring_built build_to_Nd0 close_aromatic_ring no_task build_to_Nd0 close_aromatic_ring close_aromatic_ring close_aromatic_ring close_aromatic_ring

>  <prot_clashes>  (46) 
4

>  <NBS phar>  (46) 
0.13999999999999999

>  <NBS_non-phar>  (46) 
0.43145936727523804

>  <NBS>  (46) 
0.571459367275238

>  <source_stage>  (46) 
scored

>  <source_iter>  (46) 
13

>  <source_parent_mol>  (46) 
0

>  <source_scenario>  (46) 
1 1 2 0 0 0 0 1 1 2 0 0 0

>  <source_rank_in_scored_call>  (46) 
0

>  <source_current_task>  (46) 
close_aromatic_ring

>  <scenario>  (46) 
1 1 2 0 0 0 0 1 1 2 0 0

>  <current_task>  (46) 
no_task

$$$$

     RDKit          3D

 16 18  0  0  0  0  0  0  0  0999 V2000
  -28.3420   -8.0220  -32.2100 C   0  0  0  0  0  0  0  0  0  0  0  0
  -27.8540   -6.9760  -32.8870 N   0  0  0  0  0  0  0  0  0  0  0  0
  -28.4660   -9.3250  -32.5240 N   0  0  0  0  0  0  0  0  0  0  0  0
  -27.8240   -5.7150  -32.3680 C   0  0  0  0  0  0  0  0  0  0  0  0
  -28.3110   -5.4920  -31.0970 C   0  0  0  0  0  0  0  0  0  0  0  0
  -28.8210   -6.5780  -30.3840 C   0  0  0  0  0  0  0  0  0  0  0  0
  -28.8420   -7.8540  -30.9340 C   0  0  0  0  0  0  0  0  0  0  0  0
  -29.0340   -9.9910  -31.4760 C   0  0  0  0  0  0  0  0  0  0  0  0
  -29.2760   -9.0740  -30.4660 C   0  0  0  0  0  0  0  0  0  0  0  0
  -29.8500   -9.5220  -29.3010 N   0  0  0  0  0  0  0  0  0  0  0  0
  -29.0949   -9.5536  -28.0128 C   0  0  0  0  0  0  0  0  0  0  0  0
  -28.8829  -10.7831  -27.4256 C   0  0  0  0  0  0  0  0  0  0  0  0
  -28.1869  -10.7957  -26.2648 N   0  0  0  0  0  0  0  0  0  0  0  0
  -27.7229   -9.6623  -25.7088 C   0  0  0  0  0  0  0  0  0  0  0  0
  -27.9333   -8.4306  -26.2937 C   0  0  0  0  0  0  0  0  0  0  0  0
  -28.6406   -8.3671  -27.4829 C   0  0  0  0  0  0  0  0  0  0  0  0
  1  2  2  0
  1  3  1  0
  1  7  1  0
  2  4  1  0
  3  8  1  0
  4  5  2  0
  5  6  1  0
  6  7  2  0
  7  9  1  0
  8  9  2  0
  9 10  1  0
 10 11  1  0
 11 12  2  0
 12 13  1  0
 13 14  2  0
 14 15  1  0
 15 16  2  0
 11 16  1  0
M  END
>  <name>  (47) 
Car Nac Nd0 Car Car Car Car Car Car Nd0 Car Car Nac Car Car Car

>  <indices>  (47) 
[0, 1, 2]

>  <tasks>  (47) 
probe_placing close_aromatic_ring close_aromatic_ring close_aromatic_ring close_aromatic_ring ring_built build_to_Nd0 close_aromatic_ring no_task build_to_Nd0 close_aromatic_ring close_aromatic_ring close_aromatic_ring close_aromatic_ring

>  <prot_clashes>  (47) 
4

>  <NBS phar>  (47) 
0.12

>  <NBS_non-phar>  (47) 
0.4087955355644226

>  <NBS>  (47) 
0.5287955355644226

>  <source_stage>  (47) 
scored

>  <source_iter>  (47) 
13

>  <source_parent_mol>  (47) 
0

>  <source_scenario>  (47) 
1 1 2 0 0 0 0 1 1 2 0 0 0

>  <source_rank_in_scored_call>  (47) 
1

>  <source_current_task>  (47) 
close_aromatic_ring

>  <scenario>  (47) 
1 1 2 0 0 0 0 1 1 2 0 0

>  <current_task>  (47) 
no_task

$$$$

     RDKit          3D

 16 18  0  0  0  0  0  0  0  0999 V2000
  -28.3350   -8.0360  -32.2230 C   0  0  0  0  0  0  0  0  0  0  0  0
  -27.8560   -6.9780  -32.8880 N   0  0  0  0  0  0  0  0  0  0  0  0
  -28.4530   -9.3350  -32.5540 N   0  0  0  0  0  0  0  0  0  0  0  0
  -27.8310   -5.7240  -32.3520 C   0  0  0  0  0  0  0  0  0  0  0  0
  -28.3130   -5.5210  -31.0750 C   0  0  0  0  0  0  0  0  0  0  0  0
  -28.8130   -6.6200  -30.3750 C   0  0  0  0  0  0  0  0  0  0  0  0
  -28.8290   -7.8890  -30.9420 C   0  0  0  0  0  0  0  0  0  0  0  0
  -29.0110  -10.0190  -31.5130 C   0  0  0  0  0  0  0  0  0  0  0  0
  -29.2540   -9.1180  -30.4890 C   0  0  0  0  0  0  0  0  0  0  0  0
  -29.8190   -9.5850  -29.3280 N   0  0  0  0  0  0  0  0  0  0  0  0
  -29.1990   -9.5610  -27.9470 C   0  0  0  0  0  0  0  0  0  0  0  0
  -28.8390  -10.8120  -27.4810 C   0  0  0  0  0  0  0  0  0  0  0  0
  -28.0630  -10.8840  -26.3640 N   0  0  0  0  0  0  0  0  0  0  0  0
  -27.6590   -9.7610  -25.7310 C   0  0  0  0  0  0  0  0  0  0  0  0
  -28.0130   -8.5000  -26.1860 C   0  0  0  0  0  0  0  0  0  0  0  0
  -28.8090   -8.3870  -27.3330 C   0  0  0  0  0  0  0  0  0  0  0  0
  1  2  2  0
  1  3  1  0
  1  7  1  0
  2  4  1  0
  3  8  1  0
  4  5  2  0
  5  6  1  0
  6  7  2  0
  7  9  1  0
  8  9  2  0
  9 10  1  0
 10 11  1  0
 11 12  2  0
 11 16  1  0
 12 13  1  0
 13 14  2  0
 14 15  1  0
 15 16  2  0
M  END
>  <name>  (48) 
Car Nac Nd0 Car Car Car Car Car Car Nd0 Car Car Nac Car Car Car

>  <indices>  (48) 
[0, 1, 2]

>  <tasks>  (48) 
probe_placing close_aromatic_ring close_aromatic_ring close_aromatic_ring close_aromatic_ring ring_built build_to_Nd0 close_aromatic_ring no_task build_to_Nd0 close_aromatic_ring close_aromatic_ring close_aromatic_ring close_aromatic_ring

>  <prot_clashes>  (48) 
4

>  <NBS phar>  (48) 
0.12

>  <NBS_non-phar>  (48) 
0.3771410584449768

>  <NBS>  (48) 
0.4971410584449768

>  <source_stage>  (48) 
scored

>  <source_iter>  (48) 
13

>  <source_parent_mol>  (48) 
0

>  <source_scenario>  (48) 
1 1 2 0 0 0 0 1 1 2 0 0 0

>  <source_rank_in_scored_call>  (48) 
2

>  <source_current_task>  (48) 
close_aromatic_ring

>  <scenario>  (48) 
1 1 2 0 0 0 0 1 1 2 0 0

>  <current_task>  (48) 
no_task

$$$$

     RDKit          3D

 16 18  0  0  0  0  0  0  0  0999 V2000
  -28.3420   -8.0220  -32.2100 C   0  0  0  0  0  0  0  0  0  0  0  0
  -27.8540   -6.9760  -32.8870 N   0  0  0  0  0  0  0  0  0  0  0  0
  -28.4660   -9.3250  -32.5240 N   0  0  0  0  0  0  0  0  0  0  0  0
  -27.8240   -5.7150  -32.3680 C   0  0  0  0  0  0  0  0  0  0  0  0
  -28.3110   -5.4920  -31.0970 C   0  0  0  0  0  0  0  0  0  0  0  0
  -28.8210   -6.5780  -30.3840 C   0  0  0  0  0  0  0  0  0  0  0  0
  -28.8420   -7.8540  -30.9340 C   0  0  0  0  0  0  0  0  0  0  0  0
  -29.0340   -9.9910  -31.4760 C   0  0  0  0  0  0  0  0  0  0  0  0
  -29.2760   -9.0740  -30.4660 C   0  0  0  0  0  0  0  0  0  0  0  0
  -29.8500   -9.5220  -29.3010 N   0  0  0  0  0  0  0  0  0  0  0  0
  -29.2370   -9.4832  -27.9178 C   0  0  0  0  0  0  0  0  0  0  0  0
  -28.8867  -10.7286  -27.4329 C   0  0  0  0  0  0  0  0  0  0  0  0
  -28.1175  -10.7905  -26.3114 N   0  0  0  0  0  0  0  0  0  0  0  0
  -27.7087   -9.6606  -25.6908 C   0  0  0  0  0  0  0  0  0  0  0  0
  -28.0526   -8.4043  -26.1661 C   0  0  0  0  0  0  0  0  0  0  0  0
  -28.8434   -8.3028  -27.3183 C   0  0  0  0  0  0  0  0  0  0  0  0
  1  2  2  0
  1  3  1  0
  1  7  1  0
  2  4  1  0
  3  8  1  0
  4  5  2  0
  5  6  1  0
  6  7  2  0
  7  9  1  0
  8  9  2  0
  9 10  1  0
 10 11  1  0
 11 12  2  0
 12 13  1  0
 13 14  2  0
 14 15  1  0
 15 16  2  0
 11 16  1  0
M  END
>  <name>  (49) 
Car Nac Nd0 Car Car Car Car Car Car Nd0 Car Car Nac Car Car Car

>  <indices>  (49) 
[0, 1, 2]

>  <tasks>  (49) 
probe_placing close_aromatic_ring close_aromatic_ring close_aromatic_ring close_aromatic_ring ring_built build_to_Nd0 close_aromatic_ring no_task build_to_Nd0 close_aromatic_ring close_aromatic_ring close_aromatic_ring close_aromatic_ring

>  <prot_clashes>  (49) 
4

>  <NBS phar>  (49) 
0.12

>  <NBS_non-phar>  (49) 
0.37068408727645874

>  <NBS>  (49) 
0.49068408727645874

>  <source_stage>  (49) 
scored

>  <source_iter>  (49) 
13

>  <source_parent_mol>  (49) 
0

>  <source_scenario>  (49) 
1 1 2 0 0 0 0 1 1 2 0 0 0

>  <source_rank_in_scored_call>  (49) 
3

>  <source_current_task>  (49) 
close_aromatic_ring

>  <scenario>  (49) 
1 1 2 0 0 0 0 1 1 2 0 0

>  <current_task>  (49) 
no_task

$$$$

     RDKit          3D

 18 20  0  0  0  0  0  0  0  0999 V2000
  -27.9910   -7.5780  -31.7110 C   0  0  0  0  0  0  0  0  0  0  0  0
  -27.7150   -6.6400  -32.6230 N   0  0  0  0  0  0  0  0  0  0  0  0
  -28.0500   -8.9210  -31.7840 N   0  0  0  0  0  0  0  0  0  0  0  0
  -27.7110   -5.3090  -32.3290 C   0  0  0  0  0  0  0  0  0  0  0  0
  -27.9990   -4.8960  -31.0450 C   0  0  0  0  0  0  0  0  0  0  0  0
  -28.2880   -5.8690  -30.0870 C   0  0  0  0  0  0  0  0  0  0  0  0
  -28.2870   -7.2200  -30.4110 C   0  0  0  0  0  0  0  0  0  0  0  0
  -28.3770   -9.4260  -30.5580 C   0  0  0  0  0  0  0  0  0  0  0  0
  -28.5280   -8.3630  -29.6810 C   0  0  0  0  0  0  0  0  0  0  0  0
  -28.8570   -8.4340  -28.3490 N   0  0  0  0  0  0  0  0  0  0  0  0
  -27.9050   -8.7100  -27.4700 C   0  0  0  0  0  0  0  0  0  0  0  0
  -26.6740   -8.7980  -27.5710 O   0  0  0  0  0  0  0  0  0  0  0  0
  -28.2957   -9.1628  -25.9300 C   0  0  0  0  0  0  0  0  0  0  0  0
  -27.4307   -8.8759  -24.8929 C   0  0  0  0  0  0  0  0  0  0  0  0
  -27.8443   -9.0080  -23.5809 C   0  0  0  0  0  0  0  0  0  0  0  0
  -29.1551   -9.4377  -23.3471 C   0  0  0  0  0  0  0  0  0  0  0  0
  -29.9990   -9.7177  -24.3971 C   0  0  0  0  0  0  0  0  0  0  0  0
  -29.5272   -9.5663  -25.6405 N   0  0  0  0  0  0  0  0  0  0  0  0
  1  2  2  0
  1  3  1  0
  1  7  1  0
  2  4  1  0
  3  8  1  0
  4  5  2  0
  5  6  1  0
  6  7  2  0
  7  9  1  0
  8  9  2  0
  9 10  1  0
 10 11  1  0
 11 12  2  0
 11 13  1  0
 13 14  2  0
 14 15  1  0
 15 16  2  0
 16 17  1  0
 13 18  1  0
 17 18  2  0
M  END
>  <name>  (50) 
Car Nac Nd0 Car Car Car Car Car Car Nd0 Cs2 .=O Car Car Car Car Car Nac

>  <indices>  (50) 
[0, 1, 2]

>  <tasks>  (50) 
probe_placing close_aromatic_ring close_aromatic_ring close_aromatic_ring close_aromatic_ring ring_built build_to_Nd0 close_aromatic_ring no_task build_to_Nd0 build_DB_to_Cs2 build_SB_to_Cs2 close_aromatic_ring close_aromatic_ring close_aromatic_ring close_aromatic_ring

>  <prot_clashes>  (50) 
0

>  <NBS phar>  (50) 
0.4

>  <NBS_non-phar>  (50) 
0.6355210410224067

>  <NBS>  (50) 
1.0355210410224067

>  <source_stage>  (50) 
scored

>  <source_iter>  (50) 
15

>  <source_parent_mol>  (50) 
0

>  <source_scenario>  (50) 
1 1 2 0 0 0 0 2 1 0 0 0 1 0 0

>  <source_rank_in_scored_call>  (50) 
0

>  <source_current_task>  (50) 
close_aromatic_ring

>  <scenario>  (50) 
1 1 2 0 0 0 0 2 1 0 0 0 1 0

>  <current_task>  (50) 
no_task

$$$$

     RDKit          3D

 18 20  0  0  0  0  0  0  0  0999 V2000
  -28.1080   -7.8240  -31.8200 C   0  0  0  0  0  0  0  0  0  0  0  0
  -27.9760   -6.9550  -32.8280 N   0  0  0  0  0  0  0  0  0  0  0  0
  -28.0650   -9.1690  -31.7740 N   0  0  0  0  0  0  0  0  0  0  0  0
  -28.0560   -5.6060  -32.6490 C   0  0  0  0  0  0  0  0  0  0  0  0
  -28.2800   -5.1010  -31.3850 C   0  0  0  0  0  0  0  0  0  0  0  0
  -28.4190   -6.0020  -30.3280 C   0  0  0  0  0  0  0  0  0  0  0  0
  -28.3340   -7.3730  -30.5360 C   0  0  0  0  0  0  0  0  0  0  0  0
  -28.2590   -9.5840  -30.4880 C   0  0  0  0  0  0  0  0  0  0  0  0
  -28.4280   -8.4590  -29.6940 C   0  0  0  0  0  0  0  0  0  0  0  0
  -28.6510   -8.4330  -28.3390 N   0  0  0  0  0  0  0  0  0  0  0  0
  -27.6170   -8.5580  -27.5200 C   0  0  0  0  0  0  0  0  0  0  0  0
  -26.3940   -8.5650  -27.7120 O   0  0  0  0  0  0  0  0  0  0  0  0
  -27.8560   -8.8970  -25.9200 C   0  0  0  0  0  0  0  0  0  0  0  0
  -26.9420   -8.4550  -24.9850 C   0  0  0  0  0  0  0  0  0  0  0  0
  -27.2440   -8.4980  -23.6370 C   0  0  0  0  0  0  0  0  0  0  0  0
  -28.4960   -8.9990  -23.2620 C   0  0  0  0  0  0  0  0  0  0  0  0
  -29.3900   -9.4340  -24.2130 C   0  0  0  0  0  0  0  0  0  0  0  0
  -29.0260   -9.3610  -25.4980 N   0  0  0  0  0  0  0  0  0  0  0  0
  1  2  2  0
  1  3  1  0
  1  7  1  0
  2  4  1  0
  3  8  1  0
  4  5  2  0
  5  6  1  0
  6  7  2  0
  7  9  1  0
  8  9  2  0
  9 10  1  0
 10 11  1  0
 11 12  2  0
 11 13  1  0
 13 18  1  0
 13 14  2  0
 14 15  1  0
 15 16  2  0
 16 17  1  0
 17 18  2  0
M  END
>  <name>  (51) 
Car Nac Nd0 Car Car Car Car Car Car Nd0 Cs2 .=O Car Car Car Car Car Nac

>  <indices>  (51) 
[0, 1, 2]

>  <tasks>  (51) 
probe_placing close_aromatic_ring close_aromatic_ring close_aromatic_ring close_aromatic_ring ring_built build_to_Nd0 close_aromatic_ring no_task build_to_Nd0 build_DB_to_Cs2 build_SB_to_Cs2 close_aromatic_ring close_aromatic_ring close_aromatic_ring close_aromatic_ring

>  <prot_clashes>  (51) 
3

>  <NBS phar>  (51) 
0.3

>  <NBS_non-phar>  (51) 
0.6992439693874783

>  <NBS>  (51) 
0.9992439693874784

>  <source_stage>  (51) 
scored

>  <source_iter>  (51) 
15

>  <source_parent_mol>  (51) 
0

>  <source_scenario>  (51) 
1 1 2 0 0 0 0 2 1 0 0 0 1 0 0

>  <source_rank_in_scored_call>  (51) 
1

>  <source_current_task>  (51) 
close_aromatic_ring

>  <scenario>  (51) 
1 1 2 0 0 0 0 2 1 0 0 0 1 0

>  <current_task>  (51) 
no_task

$$$$

     RDKit          3D

 18 20  0  0  0  0  0  0  0  0999 V2000
  -28.1130   -7.7760  -31.8010 C   0  0  0  0  0  0  0  0  0  0  0  0
  -27.9830   -6.8900  -32.7940 N   0  0  0  0  0  0  0  0  0  0  0  0
  -28.0680   -9.1210  -31.7770 N   0  0  0  0  0  0  0  0  0  0  0  0
  -28.0650   -5.5450  -32.5930 C   0  0  0  0  0  0  0  0  0  0  0  0
  -28.2870   -5.0600  -31.3210 C   0  0  0  0  0  0  0  0  0  0  0  0
  -28.4230   -5.9780  -30.2780 C   0  0  0  0  0  0  0  0  0  0  0  0
  -28.3370   -7.3460  -30.5090 C   0  0  0  0  0  0  0  0  0  0  0  0
  -28.2590   -9.5570  -30.4970 C   0  0  0  0  0  0  0  0  0  0  0  0
  -28.4290   -8.4460  -29.6850 C   0  0  0  0  0  0  0  0  0  0  0  0
  -28.6490   -8.4420  -28.3290 N   0  0  0  0  0  0  0  0  0  0  0  0
  -27.6140   -8.5800  -27.5140 C   0  0  0  0  0  0  0  0  0  0  0  0
  -26.3910   -8.5820  -27.7080 O   0  0  0  0  0  0  0  0  0  0  0  0
  -27.9210   -8.7580  -25.8960 C   0  0  0  0  0  0  0  0  0  0  0  0
  -26.9200   -8.5040  -24.9780 C   0  0  0  0  0  0  0  0  0  0  0  0
  -27.2060   -8.6660  -23.6350 C   0  0  0  0  0  0  0  0  0  0  0  0
  -28.4760   -9.0740  -23.2650 C   0  0  0  0  0  0  0  0  0  0  0  0
  -29.4740   -9.3270  -24.1940 C   0  0  0  0  0  0  0  0  0  0  0  0
  -29.1550   -9.1570  -25.4910 N   0  0  0  0  0  0  0  0  0  0  0  0
  1  2  2  0
  1  3  1  0
  1  7  1  0
  2  4  1  0
  3  8  1  0
  4  5  2  0
  5  6  1  0
  6  7  2  0
  7  9  1  0
  8  9  2  0
  9 10  1  0
 10 11  1  0
 11 12  2  0
 11 13  1  0
 13 18  1  0
 13 14  2  0
 14 15  1  0
 15 16  2  0
 16 17  1  0
 17 18  2  0
M  END
>  <name>  (52) 
Car Nac Nd0 Car Car Car Car Car Car Nd0 Cs2 .=O Car Car Car Car Car Nac

>  <indices>  (52) 
[0, 1, 2]

>  <tasks>  (52) 
probe_placing close_aromatic_ring close_aromatic_ring close_aromatic_ring close_aromatic_ring ring_built build_to_Nd0 close_aromatic_ring no_task build_to_Nd0 build_DB_to_Cs2 build_SB_to_Cs2 close_aromatic_ring close_aromatic_ring close_aromatic_ring close_aromatic_ring

>  <prot_clashes>  (52) 
2

>  <NBS phar>  (52) 
0.32

>  <NBS_non-phar>  (52) 
0.669482496049669

>  <NBS>  (52) 
0.9894824960496691

>  <source_stage>  (52) 
scored

>  <source_iter>  (52) 
15

>  <source_parent_mol>  (52) 
0

>  <source_scenario>  (52) 
1 1 2 0 0 0 0 2 1 0 0 0 1 0 0

>  <source_rank_in_scored_call>  (52) 
2

>  <source_current_task>  (52) 
close_aromatic_ring

>  <scenario>  (52) 
1 1 2 0 0 0 0 2 1 0 0 0 1 0

>  <current_task>  (52) 
no_task

$$$$

     RDKit          3D

 18 20  0  0  0  0  0  0  0  0999 V2000
  -28.0810   -7.7700  -31.8290 C   0  0  0  0  0  0  0  0  0  0  0  0
  -27.9810   -6.8850  -32.8260 N   0  0  0  0  0  0  0  0  0  0  0  0
  -28.0150   -9.1140  -31.8020 N   0  0  0  0  0  0  0  0  0  0  0  0
  -28.0810   -5.5400  -32.6270 C   0  0  0  0  0  0  0  0  0  0  0  0
  -28.2930   -5.0550  -31.3530 C   0  0  0  0  0  0  0  0  0  0  0  0
  -28.3980   -5.9730  -30.3070 C   0  0  0  0  0  0  0  0  0  0  0  0
  -28.2940   -7.3390  -30.5340 C   0  0  0  0  0  0  0  0  0  0  0  0
  -28.1800   -9.5490  -30.5180 C   0  0  0  0  0  0  0  0  0  0  0  0
  -28.3560   -8.4380  -29.7070 C   0  0  0  0  0  0  0  0  0  0  0  0
  -28.5560   -8.4340  -28.3470 N   0  0  0  0  0  0  0  0  0  0  0  0
  -27.5070   -8.5530  -27.5470 C   0  0  0  0  0  0  0  0  0  0  0  0
  -26.2870   -8.5360  -27.7600 O   0  0  0  0  0  0  0  0  0  0  0  0
  -27.8210   -8.5380  -25.9200 C   0  0  0  0  0  0  0  0  0  0  0  0
  -26.7760   -8.4550  -25.0200 C   0  0  0  0  0  0  0  0  0  0  0  0
  -27.0160   -8.7080  -23.6840 C   0  0  0  0  0  0  0  0  0  0  0  0
  -28.3100   -9.0410  -23.2950 C   0  0  0  0  0  0  0  0  0  0  0  0
  -29.3490   -9.1210  -24.2180 C   0  0  0  0  0  0  0  0  0  0  0  0
  -29.0810   -8.8640  -25.5300 N   0  0  0  0  0  0  0  0  0  0  0  0
  1  2  2  0
  1  3  1  0
  1  7  1  0
  2  4  1  0
  3  8  1  0
  4  5  2  0
  5  6  1  0
  6  7  2  0
  7  9  1  0
  8  9  2  0
  9 10  1  0
 10 11  1  0
 11 12  2  0
 11 13  1  0
 13 18  1  0
 13 14  2  0
 14 15  1  0
 15 16  2  0
 16 17  1  0
 17 18  2  0
M  END
>  <name>  (53) 
Car Nac Nd0 Car Car Car Car Car Car Nd0 Cs2 .=O Car Car Car Car Car Nac

>  <indices>  (53) 
[0, 1, 2]

>  <tasks>  (53) 
probe_placing close_aromatic_ring close_aromatic_ring close_aromatic_ring close_aromatic_ring ring_built build_to_Nd0 close_aromatic_ring no_task build_to_Nd0 build_DB_to_Cs2 build_SB_to_Cs2 close_aromatic_ring close_aromatic_ring close_aromatic_ring close_aromatic_ring

>  <prot_clashes>  (53) 
4

>  <NBS phar>  (53) 
0.3

>  <NBS_non-phar>  (53) 
0.6403094927469889

>  <NBS>  (53) 
0.9403094927469888

>  <source_stage>  (53) 
scored

>  <source_iter>  (53) 
15

>  <source_parent_mol>  (53) 
0

>  <source_scenario>  (53) 
1 1 2 0 0 0 0 2 1 0 0 0 1 0 0

>  <source_rank_in_scored_call>  (53) 
3

>  <source_current_task>  (53) 
close_aromatic_ring

>  <scenario>  (53) 
1 1 2 0 0 0 0 2 1 0 0 0 1 0

>  <current_task>  (53) 
no_task

$$$$

     RDKit          3D

 18 20  0  0  0  0  0  0  0  0999 V2000
  -27.9910   -7.5780  -31.7110 C   0  0  0  0  0  0  0  0  0  0  0  0
  -27.7150   -6.6400  -32.6230 N   0  0  0  0  0  0  0  0  0  0  0  0
  -28.0500   -8.9210  -31.7840 N   0  0  0  0  0  0  0  0  0  0  0  0
  -27.7110   -5.3090  -32.3290 C   0  0  0  0  0  0  0  0  0  0  0  0
  -27.9990   -4.8960  -31.0450 C   0  0  0  0  0  0  0  0  0  0  0  0
  -28.2880   -5.8690  -30.0870 C   0  0  0  0  0  0  0  0  0  0  0  0
  -28.2870   -7.2200  -30.4110 C   0  0  0  0  0  0  0  0  0  0  0  0
  -28.3770   -9.4260  -30.5580 C   0  0  0  0  0  0  0  0  0  0  0  0
  -28.5280   -8.3630  -29.6810 C   0  0  0  0  0  0  0  0  0  0  0  0
  -28.8570   -8.4340  -28.3490 N   0  0  0  0  0  0  0  0  0  0  0  0
  -27.9050   -8.7100  -27.4700 C   0  0  0  0  0  0  0  0  0  0  0  0
  -26.6740   -8.7980  -27.5710 O   0  0  0  0  0  0  0  0  0  0  0  0
  -28.3422   -8.9067  -25.9366 C   0  0  0  0  0  0  0  0  0  0  0  0
  -27.4109   -8.8658  -24.9092 C   0  0  0  0  0  0  0  0  0  0  0  0
  -27.7985   -9.1052  -23.6069 C   0  0  0  0  0  0  0  0  0  0  0  0
  -29.0857   -9.3830  -23.3064 N   0  0  0  0  0  0  0  0  0  0  0  0
  -30.0188   -9.4287  -24.2983 C   0  0  0  0  0  0  0  0  0  0  0  0
  -29.6455   -9.1888  -25.6250 C   0  0  0  0  0  0  0  0  0  0  0  0
  1  2  2  0
  1  3  1  0
  1  7  1  0
  2  4  1  0
  3  8  1  0
  4  5  2  0
  5  6  1  0
  6  7  2  0
  7  9  1  0
  8  9  2  0
  9 10  1  0
 10 11  1  0
 11 12  2  0
 11 13  1  0
 13 14  2  0
 14 15  1  0
 15 16  2  0
 16 17  1  0
 13 18  1  0
 17 18  2  0
M  END
>  <name>  (54) 
Car Nac Nd0 Car Car Car Car Car Car Nd0 Cs2 .=O Car Car Car Nac Car Car

>  <indices>  (54) 
[0, 1, 2]

>  <tasks>  (54) 
probe_placing close_aromatic_ring close_aromatic_ring close_aromatic_ring close_aromatic_ring ring_built build_to_Nd0 close_aromatic_ring no_task build_to_Nd0 build_DB_to_Cs2 build_SB_to_Cs2 close_aromatic_ring close_aromatic_ring close_aromatic_ring close_aromatic_ring

>  <prot_clashes>  (54) 
1

>  <NBS phar>  (54) 
0.4

>  <NBS_non-phar>  (54) 
0.6081493695576986

>  <NBS>  (54) 
1.0081493695576986

>  <source_stage>  (54) 
scored

>  <source_iter>  (54) 
15

>  <source_parent_mol>  (54) 
0

>  <source_scenario>  (54) 
1 1 2 0 0 0 0 2 1 0 0 0 1 1 0

>  <source_rank_in_scored_call>  (54) 
0

>  <source_current_task>  (54) 
close_aromatic_ring

>  <scenario>  (54) 
1 1 2 0 0 0 0 2 1 0 0 0 1 1

>  <current_task>  (54) 
no_task

$$$$

     RDKit          3D

 18 20  0  0  0  0  0  0  0  0999 V2000
  -28.0440   -7.7330  -31.7750 C   0  0  0  0  0  0  0  0  0  0  0  0
  -27.8710   -6.8320  -32.7470 N   0  0  0  0  0  0  0  0  0  0  0  0
  -28.0600   -9.0800  -31.7820 N   0  0  0  0  0  0  0  0  0  0  0  0
  -27.8930   -5.4890  -32.5150 C   0  0  0  0  0  0  0  0  0  0  0  0
  -28.0980   -5.0240  -31.2330 C   0  0  0  0  0  0  0  0  0  0  0  0
  -28.2800   -5.9590  -30.2130 C   0  0  0  0  0  0  0  0  0  0  0  0
  -28.2540   -7.3230  -30.4740 C   0  0  0  0  0  0  0  0  0  0  0  0
  -28.2760   -9.5350  -30.5130 C   0  0  0  0  0  0  0  0  0  0  0  0
  -28.3990   -8.4370  -29.6760 C   0  0  0  0  0  0  0  0  0  0  0  0
  -28.6240   -8.4540  -28.3210 N   0  0  0  0  0  0  0  0  0  0  0  0
  -27.6000   -8.6560  -27.5060 C   0  0  0  0  0  0  0  0  0  0  0  0
  -26.3780   -8.7090  -27.6970 O   0  0  0  0  0  0  0  0  0  0  0  0
  -27.9130   -8.7930  -25.9360 C   0  0  0  0  0  0  0  0  0  0  0  0
  -26.9100   -8.6730  -24.9860 C   0  0  0  0  0  0  0  0  0  0  0  0
  -27.1900   -8.8610  -23.6480 C   0  0  0  0  0  0  0  0  0  0  0  0
  -28.4400   -9.1650  -23.2370 N   0  0  0  0  0  0  0  0  0  0  0  0
  -29.4430   -9.2890  -24.1520 C   0  0  0  0  0  0  0  0  0  0  0  0
  -29.1780   -9.1020  -25.5130 C   0  0  0  0  0  0  0  0  0  0  0  0
  1  2  2  0
  1  3  1  0
  1  7  1  0
  2  4  1  0
  3  8  1  0
  4  5  2  0
  5  6  1  0
  6  7  2  0
  7  9  1  0
  8  9  2  0
  9 10  1  0
 10 11  1  0
 11 12  2  0
 11 13  1  0
 13 18  1  0
 13 14  2  0
 14 15  1  0
 15 16  2  0
 16 17  1  0
 17 18  2  0
M  END
>  <name>  (55) 
Car Nac Nd0 Car Car Car Car Car Car Nd0 Cs2 .=O Car Car Car Nac Car Car

>  <indices>  (55) 
[0, 1, 2]

>  <tasks>  (55) 
probe_placing close_aromatic_ring close_aromatic_ring close_aromatic_ring close_aromatic_ring ring_built build_to_Nd0 close_aromatic_ring no_task build_to_Nd0 build_DB_to_Cs2 build_SB_to_Cs2 close_aromatic_ring close_aromatic_ring close_aromatic_ring close_aromatic_ring

>  <prot_clashes>  (55) 
2

>  <NBS phar>  (55) 
0.34

>  <NBS_non-phar>  (55) 
0.6493956247965494

>  <NBS>  (55) 
0.9893956247965494

>  <source_stage>  (55) 
scored

>  <source_iter>  (55) 
15

>  <source_parent_mol>  (55) 
0

>  <source_scenario>  (55) 
1 1 2 0 0 0 0 2 1 0 0 0 1 1 0

>  <source_rank_in_scored_call>  (55) 
1

>  <source_current_task>  (55) 
close_aromatic_ring

>  <scenario>  (55) 
1 1 2 0 0 0 0 2 1 0 0 0 1 1

>  <current_task>  (55) 
no_task

$$$$

     RDKit          3D

 18 20  0  0  0  0  0  0  0  0999 V2000
  -28.0350   -7.6130  -31.7810 C   0  0  0  0  0  0  0  0  0  0  0  0
  -27.8560   -6.6970  -32.7390 N   0  0  0  0  0  0  0  0  0  0  0  0
  -28.0610   -8.9580  -31.8090 N   0  0  0  0  0  0  0  0  0  0  0  0
  -27.8680   -5.3580  -32.4860 C   0  0  0  0  0  0  0  0  0  0  0  0
  -28.0710   -4.9120  -31.1970 C   0  0  0  0  0  0  0  0  0  0  0  0
  -28.2590   -5.8610  -30.1910 C   0  0  0  0  0  0  0  0  0  0  0  0
  -28.2430   -7.2210  -30.4730 C   0  0  0  0  0  0  0  0  0  0  0  0
  -28.2800   -9.4320  -30.5470 C   0  0  0  0  0  0  0  0  0  0  0  0
  -28.3960   -8.3460  -29.6930 C   0  0  0  0  0  0  0  0  0  0  0  0
  -28.6220   -8.3830  -28.3390 N   0  0  0  0  0  0  0  0  0  0  0  0
  -27.5990   -8.6050  -27.5260 C   0  0  0  0  0  0  0  0  0  0  0  0
  -26.3770   -8.6630  -27.7180 O   0  0  0  0  0  0  0  0  0  0  0  0
  -27.9169   -8.8476  -25.9865 C   0  0  0  0  0  0  0  0  0  0  0  0
  -29.1974   -9.2462  -25.5948 C   0  0  0  0  0  0  0  0  0  0  0  0
  -26.9475   -8.6531  -25.0237 C   0  0  0  0  0  0  0  0  0  0  0  0
  -27.2300   -8.8491  -23.6669 C   0  0  0  0  0  0  0  0  0  0  0  0
  -29.4402   -9.4298  -24.2500 C   0  0  0  0  0  0  0  0  0  0  0  0
  -28.4840   -9.2376  -23.3041 N   0  0  0  0  0  0  0  0  0  0  0  0
  1  2  2  0
  1  3  1  0
  1  7  1  0
  2  4  1  0
  3  8  1  0
  4  5  2  0
  5  6  1  0
  6  7  2  0
  7  9  1  0
  8  9  2  0
  9 10  1  0
 10 11  1  0
 11 12  2  0
 11 13  1  0
 13 14  2  0
 13 15  1  0
 14 17  1  0
 15 16  2  0
 16 18  1  0
 17 18  2  0
M  END
>  <name>  (56) 
Car Nac Nd0 Car Car Car Car Car Car Nd0 Cs2 .=O Car Car Car Car Car Nac

>  <indices>  (56) 
[0, 1, 2]

>  <tasks>  (56) 
probe_placing close_aromatic_ring close_aromatic_ring close_aromatic_ring close_aromatic_ring ring_built build_to_Nd0 close_aromatic_ring no_task build_to_Nd0 build_DB_to_Cs2 build_SB_to_Cs2 close_aromatic_ring close_aromatic_ring close_aromatic_ring close_aromatic_ring

>  <prot_clashes>  (56) 
2

>  <NBS phar>  (56) 
0.34

>  <NBS_non-phar>  (56) 
0.6734928554958768

>  <NBS>  (56) 
1.0134928554958769

>  <source_stage>  (56) 
scored

>  <source_iter>  (56) 
15

>  <source_parent_mol>  (56) 
0

>  <source_scenario>  (56) 
1 1 2 0 0 0 0 2 1 0 0 0 4 0 0

>  <source_rank_in_scored_call>  (56) 
0

>  <source_current_task>  (56) 
close_aromatic_ring

>  <scenario>  (56) 
1 1 2 0 0 0 0 2 1 0 0 0 4 0

>  <current_task>  (56) 
no_task

$$$$

     RDKit          3D

 18 20  0  0  0  0  0  0  0  0999 V2000
  -28.0340   -7.7340  -31.9050 C   0  0  0  0  0  0  0  0  0  0  0  0
  -27.8510   -6.8440  -32.8860 N   0  0  0  0  0  0  0  0  0  0  0  0
  -28.0680   -9.0790  -31.8980 N   0  0  0  0  0  0  0  0  0  0  0  0
  -27.8550   -5.4990  -32.6670 C   0  0  0  0  0  0  0  0  0  0  0  0
  -28.0530   -5.0190  -31.3900 C   0  0  0  0  0  0  0  0  0  0  0  0
  -28.2450   -5.9410  -30.3600 C   0  0  0  0  0  0  0  0  0  0  0  0
  -28.2370   -7.3080  -30.6070 C   0  0  0  0  0  0  0  0  0  0  0  0
  -28.2880   -9.5200  -30.6240 C   0  0  0  0  0  0  0  0  0  0  0  0
  -28.3950   -8.4120  -29.7980 C   0  0  0  0  0  0  0  0  0  0  0  0
  -28.6190   -8.4130  -28.4430 N   0  0  0  0  0  0  0  0  0  0  0  0
  -27.5960   -8.6200  -27.6260 C   0  0  0  0  0  0  0  0  0  0  0  0
  -26.3750   -8.6900  -27.8190 O   0  0  0  0  0  0  0  0  0  0  0  0
  -27.9130   -8.8220  -26.0800 C   0  0  0  0  0  0  0  0  0  0  0  0
  -29.1940   -9.2020  -25.6770 C   0  0  0  0  0  0  0  0  0  0  0  0
  -26.9410   -8.6080  -25.1250 C   0  0  0  0  0  0  0  0  0  0  0  0
  -27.2210   -8.7670  -23.7630 C   0  0  0  0  0  0  0  0  0  0  0  0
  -29.4360   -9.3500  -24.3270 C   0  0  0  0  0  0  0  0  0  0  0  0
  -28.4770   -9.1390  -23.3880 N   0  0  0  0  0  0  0  0  0  0  0  0
  1  2  2  0
  1  3  1  0
  1  7  1  0
  2  4  1  0
  3  8  1  0
  4  5  2  0
  5  6  1  0
  6  7  2  0
  7  9  1  0
  8  9  2  0
  9 10  1  0
 10 11  1  0
 11 12  2  0
 11 13  1  0
 13 14  2  0
 13 15  1  0
 14 17  1  0
 15 16  2  0
 16 18  1  0
 17 18  2  0
M  END
>  <name>  (57) 
Car Nac Nd0 Car Car Car Car Car Car Nd0 Cs2 .=O Car Car Car Car Car Nac

>  <indices>  (57) 
[0, 1, 2]

>  <tasks>  (57) 
probe_placing close_aromatic_ring close_aromatic_ring close_aromatic_ring close_aromatic_ring ring_built build_to_Nd0 close_aromatic_ring no_task build_to_Nd0 build_DB_to_Cs2 build_SB_to_Cs2 close_aromatic_ring close_aromatic_ring close_aromatic_ring close_aromatic_ring

>  <prot_clashes>  (57) 
2

>  <NBS phar>  (57) 
0.24000000000000005

>  <NBS_non-phar>  (57) 
0.6223131815592448

>  <NBS>  (57) 
0.8623131815592449

>  <source_stage>  (57) 
scored

>  <source_iter>  (57) 
15

>  <source_parent_mol>  (57) 
0

>  <source_scenario>  (57) 
1 1 2 0 0 0 0 2 1 0 0 0 4 0 0

>  <source_rank_in_scored_call>  (57) 
1

>  <source_current_task>  (57) 
close_aromatic_ring

>  <scenario>  (57) 
1 1 2 0 0 0 0 2 1 0 0 0 4 0

>  <current_task>  (57) 
no_task

$$$$

     RDKit          3D

 18 20  0  0  0  0  0  0  0  0999 V2000
  -27.9910   -7.5780  -31.7110 C   0  0  0  0  0  0  0  0  0  0  0  0
  -27.7150   -6.6400  -32.6230 N   0  0  0  0  0  0  0  0  0  0  0  0
  -28.0500   -8.9210  -31.7840 N   0  0  0  0  0  0  0  0  0  0  0  0
  -27.7110   -5.3090  -32.3290 C   0  0  0  0  0  0  0  0  0  0  0  0
  -27.9990   -4.8960  -31.0450 C   0  0  0  0  0  0  0  0  0  0  0  0
  -28.2880   -5.8690  -30.0870 C   0  0  0  0  0  0  0  0  0  0  0  0
  -28.2870   -7.2200  -30.4110 C   0  0  0  0  0  0  0  0  0  0  0  0
  -28.3770   -9.4260  -30.5580 C   0  0  0  0  0  0  0  0  0  0  0  0
  -28.5280   -8.3630  -29.6810 C   0  0  0  0  0  0  0  0  0  0  0  0
  -28.8570   -8.4340  -28.3490 N   0  0  0  0  0  0  0  0  0  0  0  0
  -27.9050   -8.7100  -27.4700 C   0  0  0  0  0  0  0  0  0  0  0  0
  -26.6740   -8.7980  -27.5710 O   0  0  0  0  0  0  0  0  0  0  0  0
  -28.3534   -8.9705  -25.9802 C   0  0  0  0  0  0  0  0  0  0  0  0
  -27.4971   -8.9010  -24.8976 C   0  0  0  0  0  0  0  0  0  0  0  0
  -29.6648   -9.3474  -25.7182 C   0  0  0  0  0  0  0  0  0  0  0  0
  -30.0600   -9.6344  -24.4079 C   0  0  0  0  0  0  0  0  0  0  0  0
  -29.1634   -9.5496  -23.3602 C   0  0  0  0  0  0  0  0  0  0  0  0
  -27.8935   -9.1816  -23.6358 N   0  0  0  0  0  0  0  0  0  0  0  0
  1  2  2  0
  1  3  1  0
  1  7  1  0
  2  4  1  0
  3  8  1  0
  4  5  2  0
  5  6  1  0
  6  7  2  0
  7  9  1  0
  8  9  2  0
  9 10  1  0
 10 11  1  0
 11 12  2  0
 11 13  1  0
 13 14  2  0
 13 15  1  0
 15 16  2  0
 16 17  1  0
 14 18  1  0
 17 18  2  0
M  END
>  <name>  (58) 
Car Nac Nd0 Car Car Car Car Car Car Nd0 Cs2 .=O Car Car Car Car Car Nac

>  <indices>  (58) 
[0, 1, 2]

>  <tasks>  (58) 
probe_placing close_aromatic_ring close_aromatic_ring close_aromatic_ring close_aromatic_ring ring_built build_to_Nd0 close_aromatic_ring no_task build_to_Nd0 build_DB_to_Cs2 build_SB_to_Cs2 close_aromatic_ring close_aromatic_ring close_aromatic_ring close_aromatic_ring

>  <prot_clashes>  (58) 
1

>  <NBS phar>  (58) 
0.4

>  <NBS_non-phar>  (58) 
0.6046833992004395

>  <NBS>  (58) 
1.0046833992004394

>  <source_stage>  (58) 
scored

>  <source_iter>  (58) 
15

>  <source_parent_mol>  (58) 
2

>  <source_scenario>  (58) 
1 1 2 0 0 0 0 2 1 0 0 0 4 0 2

>  <source_rank_in_scored_call>  (58) 
0

>  <source_current_task>  (58) 
close_aromatic_ring

>  <scenario>  (58) 
1 1 2 0 0 0 0 2 1 0 0 0 4 0

>  <current_task>  (58) 
no_task

$$$$

     RDKit          3D

 18 20  0  0  0  0  0  0  0  0999 V2000
  -28.0320   -7.6790  -31.8180 C   0  0  0  0  0  0  0  0  0  0  0  0
  -27.8580   -6.7660  -32.7790 N   0  0  0  0  0  0  0  0  0  0  0  0
  -28.0570   -9.0240  -31.8420 N   0  0  0  0  0  0  0  0  0  0  0  0
  -27.8700   -5.4260  -32.5300 C   0  0  0  0  0  0  0  0  0  0  0  0
  -28.0660   -4.9760  -31.2410 C   0  0  0  0  0  0  0  0  0  0  0  0
  -28.2480   -5.9230  -30.2310 C   0  0  0  0  0  0  0  0  0  0  0  0
  -28.2330   -7.2840  -30.5100 C   0  0  0  0  0  0  0  0  0  0  0  0
  -28.2700   -9.4950  -30.5780 C   0  0  0  0  0  0  0  0  0  0  0  0
  -28.3810   -8.4070  -29.7270 C   0  0  0  0  0  0  0  0  0  0  0  0
  -28.6000   -8.4400  -28.3710 N   0  0  0  0  0  0  0  0  0  0  0  0
  -27.5730   -8.6600  -27.5630 C   0  0  0  0  0  0  0  0  0  0  0  0
  -26.3520   -8.7190  -27.7610 O   0  0  0  0  0  0  0  0  0  0  0  0
  -27.8920   -8.8800  -26.0340 C   0  0  0  0  0  0  0  0  0  0  0  0
  -26.9540   -8.7510  -25.0280 C   0  0  0  0  0  0  0  0  0  0  0  0
  -29.1670   -9.2830  -25.6550 C   0  0  0  0  0  0  0  0  0  0  0  0
  -29.4470   -9.5350  -24.3080 C   0  0  0  0  0  0  0  0  0  0  0  0
  -28.4720   -9.3900  -23.3400 C   0  0  0  0  0  0  0  0  0  0  0  0
  -27.2390   -8.9980  -23.7300 N   0  0  0  0  0  0  0  0  0  0  0  0
  1  2  2  0
  1  3  1  0
  1  7  1  0
  2  4  1  0
  3  8  1  0
  4  5  2  0
  5  6  1  0
  6  7  2  0
  7  9  1  0
  8  9  2  0
  9 10  1  0
 10 11  1  0
 11 12  2  0
 11 13  1  0
 13 15  1  0
 13 14  2  0
 14 18  1  0
 15 16  2  0
 16 17  1  0
 17 18  2  0
M  END
>  <name>  (59) 
Car Nac Nd0 Car Car Car Car Car Car Nd0 Cs2 .=O Car Car Car Car Car Nac

>  <indices>  (59) 
[0, 1, 2]

>  <tasks>  (59) 
probe_placing close_aromatic_ring close_aromatic_ring close_aromatic_ring close_aromatic_ring ring_built build_to_Nd0 close_aromatic_ring no_task build_to_Nd0 build_DB_to_Cs2 build_SB_to_Cs2 close_aromatic_ring close_aromatic_ring close_aromatic_ring close_aromatic_ring

>  <prot_clashes>  (59) 
2

>  <NBS phar>  (59) 
0.32

>  <NBS_non-phar>  (59) 
0.5735513899061415

>  <NBS>  (59) 
0.8935513899061416

>  <source_stage>  (59) 
scored

>  <source_iter>  (59) 
15

>  <source_parent_mol>  (59) 
2

>  <source_scenario>  (59) 
1 1 2 0 0 0 0 2 1 0 0 0 4 0 2

>  <source_rank_in_scored_call>  (59) 
3

>  <source_current_task>  (59) 
close_aromatic_ring

>  <scenario>  (59) 
1 1 2 0 0 0 0 2 1 0 0 0 4 0

>  <current_task>  (59) 
no_task

$$$$

     RDKit          3D

 18 20  0  0  0  0  0  0  0  0999 V2000
  -27.9910   -7.5780  -31.7110 C   0  0  0  0  0  0  0  0  0  0  0  0
  -27.7150   -6.6400  -32.6230 N   0  0  0  0  0  0  0  0  0  0  0  0
  -28.0500   -8.9210  -31.7840 N   0  0  0  0  0  0  0  0  0  0  0  0
  -27.7110   -5.3090  -32.3290 C   0  0  0  0  0  0  0  0  0  0  0  0
  -27.9990   -4.8960  -31.0450 C   0  0  0  0  0  0  0  0  0  0  0  0
  -28.2880   -5.8690  -30.0870 C   0  0  0  0  0  0  0  0  0  0  0  0
  -28.2870   -7.2200  -30.4110 C   0  0  0  0  0  0  0  0  0  0  0  0
  -28.3770   -9.4260  -30.5580 C   0  0  0  0  0  0  0  0  0  0  0  0
  -28.5280   -8.3630  -29.6810 C   0  0  0  0  0  0  0  0  0  0  0  0
  -28.8570   -8.4340  -28.3490 N   0  0  0  0  0  0  0  0  0  0  0  0
  -27.9050   -8.7100  -27.4700 C   0  0  0  0  0  0  0  0  0  0  0  0
  -26.6740   -8.7980  -27.5710 O   0  0  0  0  0  0  0  0  0  0  0  0
  -28.3400   -8.9759  -25.9402 C   0  0  0  0  0  0  0  0  0  0  0  0
  -27.4280   -8.8684  -24.8857 C   0  0  0  0  0  0  0  0  0  0  0  0
  -29.6526   -9.3540  -25.6948 C   0  0  0  0  0  0  0  0  0  0  0  0
  -30.1071   -9.6366  -24.4137 C   0  0  0  0  0  0  0  0  0  0  0  0
  -29.2073   -9.5248  -23.4190 N   0  0  0  0  0  0  0  0  0  0  0  0
  -27.9262   -9.1602  -23.6231 C   0  0  0  0  0  0  0  0  0  0  0  0
  1  2  2  0
  1  3  1  0
  1  7  1  0
  2  4  1  0
  3  8  1  0
  4  5  2  0
  5  6  1  0
  6  7  2  0
  7  9  1  0
  8  9  2  0
  9 10  1  0
 10 11  1  0
 11 12  2  0
 11 13  1  0
 13 14  2  0
 13 15  1  0
 15 16  2  0
 16 17  1  0
 14 18  1  0
 17 18  2  0
M  END
>  <name>  (60) 
Car Nac Nd0 Car Car Car Car Car Car Nd0 Cs2 .=O Car Car Car Car Nac Car

>  <indices>  (60) 
[0, 1, 2]

>  <tasks>  (60) 
probe_placing close_aromatic_ring close_aromatic_ring close_aromatic_ring close_aromatic_ring ring_built build_to_Nd0 close_aromatic_ring no_task build_to_Nd0 build_DB_to_Cs2 build_SB_to_Cs2 close_aromatic_ring close_aromatic_ring close_aromatic_ring close_aromatic_ring

>  <prot_clashes>  (60) 
0

>  <NBS phar>  (60) 
0.4

>  <NBS_non-phar>  (60) 
0.5915268262227377

>  <NBS>  (60) 
0.9915268262227377

>  <source_stage>  (60) 
scored

>  <source_iter>  (60) 
15

>  <source_parent_mol>  (60) 
3

>  <source_scenario>  (60) 
1 1 2 0 0 0 0 2 1 0 0 0 4 0 3

>  <source_rank_in_scored_call>  (60) 
0

>  <source_current_task>  (60) 
close_aromatic_ring

>  <scenario>  (60) 
1 1 2 0 0 0 0 2 1 0 0 0 4 0

>  <current_task>  (60) 
no_task

$$$$

     RDKit          3D

 18 20  0  0  0  0  0  0  0  0999 V2000
  -28.0890   -7.7450  -31.7750 C   0  0  0  0  0  0  0  0  0  0  0  0
  -27.9300   -6.8540  -32.7590 N   0  0  0  0  0  0  0  0  0  0  0  0
  -28.0910   -9.0910  -31.7650 N   0  0  0  0  0  0  0  0  0  0  0  0
  -27.9650   -5.5080  -32.5440 C   0  0  0  0  0  0  0  0  0  0  0  0
  -28.1690   -5.0300  -31.2660 C   0  0  0  0  0  0  0  0  0  0  0  0
  -28.3360   -5.9540  -30.2340 C   0  0  0  0  0  0  0  0  0  0  0  0
  -28.2980   -7.3210  -30.4780 C   0  0  0  0  0  0  0  0  0  0  0  0
  -28.2960   -9.5330  -30.4900 C   0  0  0  0  0  0  0  0  0  0  0  0
  -28.4270   -8.4260  -29.6660 C   0  0  0  0  0  0  0  0  0  0  0  0
  -28.6460   -8.4290  -28.3100 N   0  0  0  0  0  0  0  0  0  0  0  0
  -27.6160   -8.6110  -27.4970 C   0  0  0  0  0  0  0  0  0  0  0  0
  -26.3940   -8.6530  -27.6930 O   0  0  0  0  0  0  0  0  0  0  0  0
  -27.9420   -8.8130  -25.9080 C   0  0  0  0  0  0  0  0  0  0  0  0
  -26.9480   -8.8590  -24.9440 C   0  0  0  0  0  0  0  0  0  0  0  0
  -29.2490   -9.1080  -25.5750 C   0  0  0  0  0  0  0  0  0  0  0  0
  -29.5640   -9.4510  -24.2760 C   0  0  0  0  0  0  0  0  0  0  0  0
  -28.5840   -9.4890  -23.3610 N   0  0  0  0  0  0  0  0  0  0  0  0
  -27.3000   -9.2090  -23.6400 C   0  0  0  0  0  0  0  0  0  0  0  0
  1  2  2  0
  1  3  1  0
  1  7  1  0
  2  4  1  0
  3  8  1  0
  4  5  2  0
  5  6  1  0
  6  7  2  0
  7  9  1  0
  8  9  2  0
  9 10  1  0
 10 11  1  0
 11 12  2  0
 11 13  1  0
 13 15  1  0
 13 14  2  0
 14 18  1  0
 15 16  2  0
 16 17  1  0
 17 18  2  0
M  END
>  <name>  (61) 
Car Nac Nd0 Car Car Car Car Car Car Nd0 Cs2 .=O Car Car Car Car Nac Car

>  <indices>  (61) 
[0, 1, 2]

>  <tasks>  (61) 
probe_placing close_aromatic_ring close_aromatic_ring close_aromatic_ring close_aromatic_ring ring_built build_to_Nd0 close_aromatic_ring no_task build_to_Nd0 build_DB_to_Cs2 build_SB_to_Cs2 close_aromatic_ring close_aromatic_ring close_aromatic_ring close_aromatic_ring

>  <prot_clashes>  (61) 
2

>  <NBS phar>  (61) 
0.36000000000000004

>  <NBS_non-phar>  (61) 
0.6205107900831435

>  <NBS>  (61) 
0.9805107900831436

>  <source_stage>  (61) 
scored

>  <source_iter>  (61) 
15

>  <source_parent_mol>  (61) 
3

>  <source_scenario>  (61) 
1 1 2 0 0 0 0 2 1 0 0 0 4 0 3

>  <source_rank_in_scored_call>  (61) 
1

>  <source_current_task>  (61) 
close_aromatic_ring

>  <scenario>  (61) 
1 1 2 0 0 0 0 2 1 0 0 0 4 0

>  <current_task>  (61) 
no_task

$$$$

     RDKit          3D

 18 20  0  0  0  0  0  0  0  0999 V2000
  -27.9910   -7.5780  -31.7110 C   0  0  0  0  0  0  0  0  0  0  0  0
  -27.7150   -6.6400  -32.6230 N   0  0  0  0  0  0  0  0  0  0  0  0
  -28.0500   -8.9210  -31.7840 N   0  0  0  0  0  0  0  0  0  0  0  0
  -27.7110   -5.3090  -32.3290 C   0  0  0  0  0  0  0  0  0  0  0  0
  -27.9990   -4.8960  -31.0450 C   0  0  0  0  0  0  0  0  0  0  0  0
  -28.2880   -5.8690  -30.0870 C   0  0  0  0  0  0  0  0  0  0  0  0
  -28.2870   -7.2200  -30.4110 C   0  0  0  0  0  0  0  0  0  0  0  0
  -28.3770   -9.4260  -30.5580 C   0  0  0  0  0  0  0  0  0  0  0  0
  -28.5280   -8.3630  -29.6810 C   0  0  0  0  0  0  0  0  0  0  0  0
  -28.8570   -8.4340  -28.3490 N   0  0  0  0  0  0  0  0  0  0  0  0
  -27.9050   -8.7100  -27.4700 C   0  0  0  0  0  0  0  0  0  0  0  0
  -26.6740   -8.7980  -27.5710 O   0  0  0  0  0  0  0  0  0  0  0  0
  -28.3671   -8.9875  -25.9269 C   0  0  0  0  0  0  0  0  0  0  0  0
  -27.4580   -9.1358  -24.8918 C   0  0  0  0  0  0  0  0  0  0  0  0
  -29.7077   -9.2407  -25.7169 C   0  0  0  0  0  0  0  0  0  0  0  0
  -30.1424   -9.6433  -24.4695 C   0  0  0  0  0  0  0  0  0  0  0  0
  -29.2420   -9.7792  -23.4847 N   0  0  0  0  0  0  0  0  0  0  0  0
  -27.9288   -9.5438  -23.6439 C   0  0  0  0  0  0  0  0  0  0  0  0
  1  2  2  0
  1  3  1  0
  1  7  1  0
  2  4  1  0
  3  8  1  0
  4  5  2  0
  5  6  1  0
  6  7  2  0
  7  9  1  0
  8  9  2  0
  9 10  1  0
 10 11  1  0
 11 12  2  0
 11 13  1  0
 13 14  2  0
 13 15  1  0
 15 16  2  0
 16 17  1  0
 17 18  2  0
 14 18  1  0
M  END
>  <name>  (62) 
Car Nac Nd0 Car Car Car Car Car Car Nd0 Cs2 .=O Car Car Car Car Nac Car

>  <indices>  (62) 
[0, 1, 2]

>  <tasks>  (62) 
probe_placing close_aromatic_ring close_aromatic_ring close_aromatic_ring close_aromatic_ring ring_built build_to_Nd0 close_aromatic_ring no_task build_to_Nd0 build_DB_to_Cs2 build_SB_to_Cs2 close_aromatic_ring close_aromatic_ring close_aromatic_ring close_aromatic_ring

>  <prot_clashes>  (62) 
1

>  <NBS phar>  (62) 
0.4

>  <NBS_non-phar>  (62) 
0.5546371671888564

>  <NBS>  (62) 
0.9546371671888564

>  <source_stage>  (62) 
scored

>  <source_iter>  (62) 
15

>  <source_parent_mol>  (62) 
3

>  <source_scenario>  (62) 
1 1 2 0 0 0 0 2 1 0 0 0 4 0 3

>  <source_rank_in_scored_call>  (62) 
2

>  <source_current_task>  (62) 
close_aromatic_ring

>  <scenario>  (62) 
1 1 2 0 0 0 0 2 1 0 0 0 4 0

>  <current_task>  (62) 
no_task

$$$$

     RDKit          3D

 18 20  0  0  0  0  0  0  0  0999 V2000
  -28.1110   -7.7620  -31.9070 C   0  0  0  0  0  0  0  0  0  0  0  0
  -27.9840   -6.8590  -32.8850 N   0  0  0  0  0  0  0  0  0  0  0  0
  -28.0630   -9.1070  -31.9050 N   0  0  0  0  0  0  0  0  0  0  0  0
  -28.0690   -5.5180  -32.6610 C   0  0  0  0  0  0  0  0  0  0  0  0
  -28.2950   -5.0550  -31.3820 C   0  0  0  0  0  0  0  0  0  0  0  0
  -28.4290   -5.9910  -30.3550 C   0  0  0  0  0  0  0  0  0  0  0  0
  -28.3390   -7.3540  -30.6070 C   0  0  0  0  0  0  0  0  0  0  0  0
  -28.2540   -9.5650  -30.6330 C   0  0  0  0  0  0  0  0  0  0  0  0
  -28.4280   -8.4680  -29.8030 C   0  0  0  0  0  0  0  0  0  0  0  0
  -28.6500   -8.4880  -28.4470 N   0  0  0  0  0  0  0  0  0  0  0  0
  -27.6150   -8.6350  -27.6330 C   0  0  0  0  0  0  0  0  0  0  0  0
  -26.3920   -8.6310  -27.8260 O   0  0  0  0  0  0  0  0  0  0  0  0
  -27.9110   -8.8460  -26.0610 C   0  0  0  0  0  0  0  0  0  0  0  0
  -26.9350   -8.6050  -25.0900 C   0  0  0  0  0  0  0  0  0  0  0  0
  -29.1660   -9.3120  -25.6940 C   0  0  0  0  0  0  0  0  0  0  0  0
  -29.4980   -9.5560  -24.3680 C   0  0  0  0  0  0  0  0  0  0  0  0
  -28.5390   -9.3150  -23.4550 N   0  0  0  0  0  0  0  0  0  0  0  0
  -27.3120   -8.8620  -23.7780 C   0  0  0  0  0  0  0  0  0  0  0  0
  1  2  2  0
  1  3  1  0
  1  7  1  0
  2  4  1  0
  3  8  1  0
  4  5  2  0
  5  6  1  0
  6  7  2  0
  7  9  1  0
  8  9  2  0
  9 10  1  0
 10 11  1  0
 11 12  2  0
 11 13  1  0
 13 15  1  0
 13 14  2  0
 14 18  1  0
 15 16  2  0
 16 17  1  0
 17 18  2  0
M  END
>  <name>  (63) 
Car Nac Nd0 Car Car Car Car Car Car Nd0 Cs2 .=O Car Car Car Car Nac Car

>  <indices>  (63) 
[0, 1, 2]

>  <tasks>  (63) 
probe_placing close_aromatic_ring close_aromatic_ring close_aromatic_ring close_aromatic_ring ring_built build_to_Nd0 close_aromatic_ring no_task build_to_Nd0 build_DB_to_Cs2 build_SB_to_Cs2 close_aromatic_ring close_aromatic_ring close_aromatic_ring close_aromatic_ring

>  <prot_clashes>  (63) 
2

>  <NBS phar>  (63) 
0.22000000000000003

>  <NBS_non-phar>  (63) 
0.6312608189053006

>  <NBS>  (63) 
0.8512608189053006

>  <source_stage>  (63) 
scored

>  <source_iter>  (63) 
15

>  <source_parent_mol>  (63) 
3

>  <source_scenario>  (63) 
1 1 2 0 0 0 0 2 1 0 0 0 4 0 3

>  <source_rank_in_scored_call>  (63) 
3

>  <source_current_task>  (63) 
close_aromatic_ring

>  <scenario>  (63) 
1 1 2 0 0 0 0 2 1 0 0 0 4 0

>  <current_task>  (63) 
no_task

$$$$

     RDKit          3D

 18 20  0  0  0  0  0  0  0  0999 V2000
  -27.9910   -7.5780  -31.7110 C   0  0  0  0  0  0  0  0  0  0  0  0
  -27.7150   -6.6400  -32.6230 N   0  0  0  0  0  0  0  0  0  0  0  0
  -28.0500   -8.9210  -31.7840 N   0  0  0  0  0  0  0  0  0  0  0  0
  -27.7110   -5.3090  -32.3290 C   0  0  0  0  0  0  0  0  0  0  0  0
  -27.9990   -4.8960  -31.0450 C   0  0  0  0  0  0  0  0  0  0  0  0
  -28.2880   -5.8690  -30.0870 C   0  0  0  0  0  0  0  0  0  0  0  0
  -28.2870   -7.2200  -30.4110 C   0  0  0  0  0  0  0  0  0  0  0  0
  -28.3770   -9.4260  -30.5580 C   0  0  0  0  0  0  0  0  0  0  0  0
  -28.5280   -8.3630  -29.6810 C   0  0  0  0  0  0  0  0  0  0  0  0
  -28.8570   -8.4340  -28.3490 N   0  0  0  0  0  0  0  0  0  0  0  0
  -27.9050   -8.7100  -27.4700 C   0  0  0  0  0  0  0  0  0  0  0  0
  -26.6740   -8.7980  -27.5710 O   0  0  0  0  0  0  0  0  0  0  0  0
  -28.3103   -8.9839  -25.9804 C   0  0  0  0  0  0  0  0  0  0  0  0
  -27.3016   -9.0021  -25.0209 C   0  0  0  0  0  0  0  0  0  0  0  0
  -29.6336   -9.2646  -25.6443 C   0  0  0  0  0  0  0  0  0  0  0  0
  -29.9628   -9.5570  -24.3949 N   0  0  0  0  0  0  0  0  0  0  0  0
  -29.0264   -9.5895  -23.4224 C   0  0  0  0  0  0  0  0  0  0  0  0
  -27.7075   -9.3167  -23.7214 C   0  0  0  0  0  0  0  0  0  0  0  0
  1  2  2  0
  1  3  1  0
  1  7  1  0
  2  4  1  0
  3  8  1  0
  4  5  2  0
  5  6  1  0
  6  7  2  0
  7  9  1  0
  8  9  2  0
  9 10  1  0
 10 11  1  0
 11 12  2  0
 11 13  1  0
 13 14  2  0
 13 15  1  0
 15 16  2  0
 16 17  1  0
 14 18  1  0
 17 18  2  0
M  END
>  <name>  (64) 
Car Nac Nd0 Car Car Car Car Car Car Nd0 Cs2 .=O Car Car Car Nac Car Car

>  <indices>  (64) 
[0, 1, 2]

>  <tasks>  (64) 
probe_placing close_aromatic_ring close_aromatic_ring close_aromatic_ring close_aromatic_ring ring_built build_to_Nd0 close_aromatic_ring no_task build_to_Nd0 build_DB_to_Cs2 build_SB_to_Cs2 close_aromatic_ring close_aromatic_ring close_aromatic_ring close_aromatic_ring

>  <prot_clashes>  (64) 
1

>  <NBS phar>  (64) 
0.42000000000000004

>  <NBS_non-phar>  (64) 
0.5763839615715874

>  <NBS>  (64) 
0.9963839615715875

>  <source_stage>  (64) 
scored

>  <source_iter>  (64) 
15

>  <source_parent_mol>  (64) 
1

>  <source_scenario>  (64) 
1 1 2 0 0 0 0 2 1 0 0 0 4 2 1

>  <source_rank_in_scored_call>  (64) 
0

>  <source_current_task>  (64) 
close_aromatic_ring

>  <scenario>  (64) 
1 1 2 0 0 0 0 2 1 0 0 0 4 2

>  <current_task>  (64) 
no_task

$$$$

     RDKit          3D

 18 20  0  0  0  0  0  0  0  0999 V2000
  -28.0370   -7.6660  -31.8040 C   0  0  0  0  0  0  0  0  0  0  0  0
  -27.8500   -6.7580  -32.7670 N   0  0  0  0  0  0  0  0  0  0  0  0
  -28.0670   -9.0120  -31.8240 N   0  0  0  0  0  0  0  0  0  0  0  0
  -27.8590   -5.4170  -32.5240 C   0  0  0  0  0  0  0  0  0  0  0  0
  -28.0670   -4.9620  -31.2380 C   0  0  0  0  0  0  0  0  0  0  0  0
  -28.2630   -5.9030  -30.2270 C   0  0  0  0  0  0  0  0  0  0  0  0
  -28.2500   -7.2650  -30.5010 C   0  0  0  0  0  0  0  0  0  0  0  0
  -28.2940   -9.4770  -30.5600 C   0  0  0  0  0  0  0  0  0  0  0  0
  -28.4110   -8.3850  -29.7140 C   0  0  0  0  0  0  0  0  0  0  0  0
  -28.6440   -8.4120  -28.3600 N   0  0  0  0  0  0  0  0  0  0  0  0
  -27.6260   -8.6320  -27.5410 C   0  0  0  0  0  0  0  0  0  0  0  0
  -26.4030   -8.6960  -27.7260 O   0  0  0  0  0  0  0  0  0  0  0  0
  -27.9280   -8.8590  -26.0010 C   0  0  0  0  0  0  0  0  0  0  0  0
  -26.9360   -8.6590  -25.0610 C   0  0  0  0  0  0  0  0  0  0  0  0
  -29.1920   -9.2270  -25.6180 C   0  0  0  0  0  0  0  0  0  0  0  0
  -29.4920   -9.4040  -24.3070 N   0  0  0  0  0  0  0  0  0  0  0  0
  -28.5560   -9.2190  -23.3590 C   0  0  0  0  0  0  0  0  0  0  0  0
  -27.2910   -8.8500  -23.7380 C   0  0  0  0  0  0  0  0  0  0  0  0
  1  2  2  0
  1  3  1  0
  1  7  1  0
  2  4  1  0
  3  8  1  0
  4  5  2  0
  5  6  1  0
  6  7  2  0
  7  9  1  0
  8  9  2  0
  9 10  1  0
 10 11  1  0
 11 12  2  0
 11 13  1  0
 13 15  1  0
 13 14  2  0
 14 18  1  0
 15 16  2  0
 16 17  1  0
 17 18  2  0
M  END
>  <name>  (65) 
Car Nac Nd0 Car Car Car Car Car Car Nd0 Cs2 .=O Car Car Car Nac Car Car

>  <indices>  (65) 
[0, 1, 2]

>  <tasks>  (65) 
probe_placing close_aromatic_ring close_aromatic_ring close_aromatic_ring close_aromatic_ring ring_built build_to_Nd0 close_aromatic_ring no_task build_to_Nd0 build_DB_to_Cs2 build_SB_to_Cs2 close_aromatic_ring close_aromatic_ring close_aromatic_ring close_aromatic_ring

>  <prot_clashes>  (65) 
2

>  <NBS phar>  (65) 
0.34

>  <NBS_non-phar>  (65) 
0.6313023037380643

>  <NBS>  (65) 
0.9713023037380644

>  <source_stage>  (65) 
scored

>  <source_iter>  (65) 
15

>  <source_parent_mol>  (65) 
1

>  <source_scenario>  (65) 
1 1 2 0 0 0 0 2 1 0 0 0 4 2 1

>  <source_rank_in_scored_call>  (65) 
1

>  <source_current_task>  (65) 
close_aromatic_ring

>  <scenario>  (65) 
1 1 2 0 0 0 0 2 1 0 0 0 4 2

>  <current_task>  (65) 
no_task

$$$$

     RDKit          3D

 18 20  0  0  0  0  0  0  0  0999 V2000
  -27.9910   -7.5780  -31.7110 C   0  0  0  0  0  0  0  0  0  0  0  0
  -27.7150   -6.6400  -32.6230 N   0  0  0  0  0  0  0  0  0  0  0  0
  -28.0500   -8.9210  -31.7840 N   0  0  0  0  0  0  0  0  0  0  0  0
  -27.7110   -5.3090  -32.3290 C   0  0  0  0  0  0  0  0  0  0  0  0
  -27.9990   -4.8960  -31.0450 C   0  0  0  0  0  0  0  0  0  0  0  0
  -28.2880   -5.8690  -30.0870 C   0  0  0  0  0  0  0  0  0  0  0  0
  -28.2870   -7.2200  -30.4110 C   0  0  0  0  0  0  0  0  0  0  0  0
  -28.3770   -9.4260  -30.5580 C   0  0  0  0  0  0  0  0  0  0  0  0
  -28.5280   -8.3630  -29.6810 C   0  0  0  0  0  0  0  0  0  0  0  0
  -28.8570   -8.4340  -28.3490 N   0  0  0  0  0  0  0  0  0  0  0  0
  -27.9050   -8.7100  -27.4700 C   0  0  0  0  0  0  0  0  0  0  0  0
  -26.6740   -8.7980  -27.5710 O   0  0  0  0  0  0  0  0  0  0  0  0
  -28.3209   -8.9845  -25.9644 C   0  0  0  0  0  0  0  0  0  0  0  0
  -27.3934   -8.8450  -24.9501 C   0  0  0  0  0  0  0  0  0  0  0  0
  -29.6166   -9.3350  -25.6850 C   0  0  0  0  0  0  0  0  0  0  0  0
  -30.0134   -9.5517  -24.4061 N   0  0  0  0  0  0  0  0  0  0  0  0
  -29.1415   -9.4264  -23.3883 C   0  0  0  0  0  0  0  0  0  0  0  0
  -27.8461   -9.0764  -23.6637 C   0  0  0  0  0  0  0  0  0  0  0  0
  1  2  2  0
  1  3  1  0
  1  7  1  0
  2  4  1  0
  3  8  1  0
  4  5  2  0
  5  6  1  0
  6  7  2  0
  7  9  1  0
  8  9  2  0
  9 10  1  0
 10 11  1  0
 11 12  2  0
 11 13  1  0
 13 14  2  0
 13 15  1  0
 15 16  2  0
 16 17  1  0
 14 18  1  0
 17 18  2  0
M  END
>  <name>  (66) 
Car Nac Nd0 Car Car Car Car Car Car Nd0 Cs2 .=O Car Car Car Nac Car Car

>  <indices>  (66) 
[0, 1, 2]

>  <tasks>  (66) 
probe_placing close_aromatic_ring close_aromatic_ring close_aromatic_ring close_aromatic_ring ring_built build_to_Nd0 close_aromatic_ring no_task build_to_Nd0 build_DB_to_Cs2 build_SB_to_Cs2 close_aromatic_ring close_aromatic_ring close_aromatic_ring close_aromatic_ring

>  <prot_clashes>  (66) 
0

>  <NBS phar>  (66) 
0.4

>  <NBS_non-phar>  (66) 
0.5627395841810439

>  <NBS>  (66) 
0.9627395841810439

>  <source_stage>  (66) 
scored

>  <source_iter>  (66) 
15

>  <source_parent_mol>  (66) 
1

>  <source_scenario>  (66) 
1 1 2 0 0 0 0 2 1 0 0 0 4 2 1

>  <source_rank_in_scored_call>  (66) 
2

>  <source_current_task>  (66) 
close_aromatic_ring

>  <scenario>  (66) 
1 1 2 0 0 0 0 2 1 0 0 0 4 2

>  <current_task>  (66) 
no_task

$$$$

     RDKit          3D

 18 20  0  0  0  0  0  0  0  0999 V2000
  -28.1240   -7.7510  -31.8570 C   0  0  0  0  0  0  0  0  0  0  0  0
  -27.9680   -6.8530  -32.8350 N   0  0  0  0  0  0  0  0  0  0  0  0
  -28.0940   -9.0970  -31.8510 N   0  0  0  0  0  0  0  0  0  0  0  0
  -28.0400   -5.5090  -32.6160 C   0  0  0  0  0  0  0  0  0  0  0  0
  -28.2810   -5.0400  -31.3420 C   0  0  0  0  0  0  0  0  0  0  0  0
  -28.4450   -5.9710  -30.3150 C   0  0  0  0  0  0  0  0  0  0  0  0
  -28.3680   -7.3360  -30.5630 C   0  0  0  0  0  0  0  0  0  0  0  0
  -28.3130   -9.5480  -30.5810 C   0  0  0  0  0  0  0  0  0  0  0  0
  -28.4860   -8.4470  -29.7570 C   0  0  0  0  0  0  0  0  0  0  0  0
  -28.7310   -8.4590  -28.4050 N   0  0  0  0  0  0  0  0  0  0  0  0
  -27.7130   -8.6190  -27.5730 C   0  0  0  0  0  0  0  0  0  0  0  0
  -26.4870   -8.6310  -27.7450 O   0  0  0  0  0  0  0  0  0  0  0  0
  -28.0110   -8.8290  -26.0480 C   0  0  0  0  0  0  0  0  0  0  0  0
  -26.9500   -8.7230  -25.1530 C   0  0  0  0  0  0  0  0  0  0  0  0
  -29.2900   -9.1770  -25.6150 C   0  0  0  0  0  0  0  0  0  0  0  0
  -29.5250   -9.4150  -24.3330 N   0  0  0  0  0  0  0  0  0  0  0  0
  -28.5330   -9.3260  -23.4200 C   0  0  0  0  0  0  0  0  0  0  0  0
  -27.2550   -8.9860  -23.8150 C   0  0  0  0  0  0  0  0  0  0  0  0
  1  2  2  0
  1  3  1  0
  1  7  1  0
  2  4  1  0
  3  8  1  0
  4  5  2  0
  5  6  1  0
  6  7  2  0
  7  9  1  0
  8  9  2  0
  9 10  1  0
 10 11  1  0
 11 12  2  0
 11 13  1  0
 13 15  1  0
 13 14  2  0
 14 18  1  0
 15 16  2  0
 16 17  1  0
 17 18  2  0
M  END
>  <name>  (67) 
Car Nac Nd0 Car Car Car Car Car Car Nd0 Cs2 .=O Car Car Car Nac Car Car

>  <indices>  (67) 
[0, 1, 2]

>  <tasks>  (67) 
probe_placing close_aromatic_ring close_aromatic_ring close_aromatic_ring close_aromatic_ring ring_built build_to_Nd0 close_aromatic_ring no_task build_to_Nd0 build_DB_to_Cs2 build_SB_to_Cs2 close_aromatic_ring close_aromatic_ring close_aromatic_ring close_aromatic_ring

>  <prot_clashes>  (67) 
2

>  <NBS phar>  (67) 
0.22000000000000003

>  <NBS_non-phar>  (67) 
0.5862707561916776

>  <NBS>  (67) 
0.8062707561916775

>  <source_stage>  (67) 
scored

>  <source_iter>  (67) 
15

>  <source_parent_mol>  (67) 
1

>  <source_scenario>  (67) 
1 1 2 0 0 0 0 2 1 0 0 0 4 2 1

>  <source_rank_in_scored_call>  (67) 
3

>  <source_current_task>  (67) 
close_aromatic_ring

>  <scenario>  (67) 
1 1 2 0 0 0 0 2 1 0 0 0 4 2

>  <current_task>  (67) 
no_task

$$$$

     RDKit          3D

 18 20  0  0  0  0  0  0  0  0999 V2000
  -28.0370   -7.6670  -31.8030 C   0  0  0  0  0  0  0  0  0  0  0  0
  -27.8520   -6.7590  -32.7670 N   0  0  0  0  0  0  0  0  0  0  0  0
  -28.0620   -9.0130  -31.8210 N   0  0  0  0  0  0  0  0  0  0  0  0
  -27.8670   -5.4180  -32.5240 C   0  0  0  0  0  0  0  0  0  0  0  0
  -28.0770   -4.9620  -31.2400 C   0  0  0  0  0  0  0  0  0  0  0  0
  -28.2700   -5.9040  -30.2280 C   0  0  0  0  0  0  0  0  0  0  0  0
  -28.2520   -7.2660  -30.5000 C   0  0  0  0  0  0  0  0  0  0  0  0
  -28.2880   -9.4780  -30.5570 C   0  0  0  0  0  0  0  0  0  0  0  0
  -28.4090   -8.3850  -29.7120 C   0  0  0  0  0  0  0  0  0  0  0  0
  -28.6420   -8.4120  -28.3590 N   0  0  0  0  0  0  0  0  0  0  0  0
  -27.6240   -8.6280  -27.5390 C   0  0  0  0  0  0  0  0  0  0  0  0
  -26.4010   -8.6870  -27.7230 O   0  0  0  0  0  0  0  0  0  0  0  0
  -27.9190   -8.8500  -26.0120 C   0  0  0  0  0  0  0  0  0  0  0  0
  -26.9380   -8.6500  -25.0610 C   0  0  0  0  0  0  0  0  0  0  0  0
  -29.1840   -9.2270  -25.5960 C   0  0  0  0  0  0  0  0  0  0  0  0
  -29.4960   -9.4050  -24.3060 N   0  0  0  0  0  0  0  0  0  0  0  0
  -27.2850   -8.8410  -23.7320 C   0  0  0  0  0  0  0  0  0  0  0  0
  -28.5590   -9.2160  -23.3640 C   0  0  0  0  0  0  0  0  0  0  0  0
  1  2  2  0
  1  3  1  0
  1  7  1  0
  2  4  1  0
  3  8  1  0
  4  5  2  0
  5  6  1  0
  6  7  2  0
  7  9  1  0
  8  9  2  0
  9 10  1  0
 10 11  1  0
 11 12  2  0
 11 13  1  0
 13 15  1  0
 13 14  2  0
 14 17  1  0
 15 16  2  0
 16 18  1  0
 17 18  2  0
M  END
>  <name>  (68) 
Car Nac Nd0 Car Car Car Car Car Car Nd0 Cs2 .=O Car Car Car Nac Car Car

>  <indices>  (68) 
[0, 1, 2]

>  <tasks>  (68) 
probe_placing close_aromatic_ring close_aromatic_ring close_aromatic_ring close_aromatic_ring ring_built build_to_Nd0 close_aromatic_ring no_task build_to_Nd0 build_DB_to_Cs2 build_SB_to_Cs2 close_aromatic_ring close_aromatic_ring close_aromatic_ring close_aromatic_ring

>  <prot_clashes>  (68) 
2

>  <NBS phar>  (68) 
0.34

>  <NBS_non-phar>  (68) 
0.6396938429938422

>  <NBS>  (68) 
0.9796938429938422

>  <source_stage>  (68) 
scored

>  <source_iter>  (68) 
15

>  <source_parent_mol>  (68) 
2

>  <source_scenario>  (68) 
1 1 2 0 0 0 0 2 1 0 0 0 4 2 2

>  <source_rank_in_scored_call>  (68) 
0

>  <source_current_task>  (68) 
close_aromatic_ring

>  <scenario>  (68) 
1 1 2 0 0 0 0 2 1 0 0 0 4 2

>  <current_task>  (68) 
no_task

$$$$

     RDKit          3D

 18 20  0  0  0  0  0  0  0  0999 V2000
  -27.9910   -7.5780  -31.7110 C   0  0  0  0  0  0  0  0  0  0  0  0
  -27.7150   -6.6400  -32.6230 N   0  0  0  0  0  0  0  0  0  0  0  0
  -28.0500   -8.9210  -31.7840 N   0  0  0  0  0  0  0  0  0  0  0  0
  -27.7110   -5.3090  -32.3290 C   0  0  0  0  0  0  0  0  0  0  0  0
  -27.9990   -4.8960  -31.0450 C   0  0  0  0  0  0  0  0  0  0  0  0
  -28.2880   -5.8690  -30.0870 C   0  0  0  0  0  0  0  0  0  0  0  0
  -28.2870   -7.2200  -30.4110 C   0  0  0  0  0  0  0  0  0  0  0  0
  -28.3770   -9.4260  -30.5580 C   0  0  0  0  0  0  0  0  0  0  0  0
  -28.5280   -8.3630  -29.6810 C   0  0  0  0  0  0  0  0  0  0  0  0
  -28.8570   -8.4340  -28.3490 N   0  0  0  0  0  0  0  0  0  0  0  0
  -27.9050   -8.7100  -27.4700 C   0  0  0  0  0  0  0  0  0  0  0  0
  -26.6740   -8.7980  -27.5710 O   0  0  0  0  0  0  0  0  0  0  0  0
  -28.3126   -8.9812  -25.9765 C   0  0  0  0  0  0  0  0  0  0  0  0
  -27.3964   -8.8454  -24.9526 C   0  0  0  0  0  0  0  0  0  0  0  0
  -29.6142   -9.3362  -25.6646 C   0  0  0  0  0  0  0  0  0  0  0  0
  -30.0199   -9.5532  -24.4079 N   0  0  0  0  0  0  0  0  0  0  0  0
  -27.8411   -9.0756  -23.6598 C   0  0  0  0  0  0  0  0  0  0  0  0
  -29.1477   -9.4274  -23.3961 C   0  0  0  0  0  0  0  0  0  0  0  0
  1  2  2  0
  1  3  1  0
  1  7  1  0
  2  4  1  0
  3  8  1  0
  4  5  2  0
  5  6  1  0
  6  7  2  0
  7  9  1  0
  8  9  2  0
  9 10  1  0
 10 11  1  0
 11 12  2  0
 11 13  1  0
 13 14  2  0
 13 15  1  0
 15 16  2  0
 14 17  1  0
 16 18  1  0
 17 18  2  0
M  END
>  <name>  (69) 
Car Nac Nd0 Car Car Car Car Car Car Nd0 Cs2 .=O Car Car Car Nac Car Car

>  <indices>  (69) 
[0, 1, 2]

>  <tasks>  (69) 
probe_placing close_aromatic_ring close_aromatic_ring close_aromatic_ring close_aromatic_ring ring_built build_to_Nd0 close_aromatic_ring no_task build_to_Nd0 build_DB_to_Cs2 build_SB_to_Cs2 close_aromatic_ring close_aromatic_ring close_aromatic_ring close_aromatic_ring

>  <prot_clashes>  (69) 
0

>  <NBS phar>  (69) 
0.4

>  <NBS_non-phar>  (69) 
0.5630094210306803

>  <NBS>  (69) 
0.9630094210306803

>  <source_stage>  (69) 
scored

>  <source_iter>  (69) 
15

>  <source_parent_mol>  (69) 
2

>  <source_scenario>  (69) 
1 1 2 0 0 0 0 2 1 0 0 0 4 2 2

>  <source_rank_in_scored_call>  (69) 
2

>  <source_current_task>  (69) 
close_aromatic_ring

>  <scenario>  (69) 
1 1 2 0 0 0 0 2 1 0 0 0 4 2

>  <current_task>  (69) 
no_task

$$$$

     RDKit          3D

 18 20  0  0  0  0  0  0  0  0999 V2000
  -28.0180   -7.6060  -31.8240 C   0  0  0  0  0  0  0  0  0  0  0  0
  -27.7980   -6.6000  -32.6780 N   0  0  0  0  0  0  0  0  0  0  0  0
  -28.0460   -8.9420  -31.9870 N   0  0  0  0  0  0  0  0  0  0  0  0
  -27.8160   -5.2930  -32.2930 C   0  0  0  0  0  0  0  0  0  0  0  0
  -28.0680   -4.9760  -30.9750 C   0  0  0  0  0  0  0  0  0  0  0  0
  -28.2990   -6.0190  -30.0770 C   0  0  0  0  0  0  0  0  0  0  0  0
  -28.2750   -7.3460  -30.4930 C   0  0  0  0  0  0  0  0  0  0  0  0
  -28.3170   -9.5370  -30.7890 C   0  0  0  0  0  0  0  0  0  0  0  0
  -28.4630   -8.5410  -29.8370 C   0  0  0  0  0  0  0  0  0  0  0  0
  -28.7420   -8.7120  -28.5020 N   0  0  0  0  0  0  0  0  0  0  0  0
  -27.7530   -9.0210  -27.6760 C   0  0  0  0  0  0  0  0  0  0  0  0
  -26.5250   -9.0690  -27.8250 O   0  0  0  0  0  0  0  0  0  0  0  0
  -28.0710   -9.2990  -26.1430 C   0  0  0  0  0  0  0  0  0  0  0  0
  -28.9460   -8.4700  -25.4530 C   0  0  0  0  0  0  0  0  0  0  0  0
  -29.4140   -8.8540  -24.2140 C   0  0  0  0  0  0  0  0  0  0  0  0
  -29.0220  -10.0280  -23.6820 N   0  0  0  0  0  0  0  0  0  0  0  0
  -28.1680  -10.8560  -24.3360 C   0  0  0  0  0  0  0  0  0  0  0  0
  -27.6670  -10.5180  -25.5860 C   0  0  0  0  0  0  0  0  0  0  0  0
  1  2  2  0
  1  3  1  0
  1  7  1  0
  2  4  1  0
  3  8  1  0
  4  5  2  0
  5  6  1  0
  6  7  2  0
  7  9  1  0
  8  9  2  0
  9 10  1  0
 10 11  1  0
 11 12  2  0
 11 13  1  0
 13 18  1  0
 13 14  2  0
 14 15  1  0
 15 16  2  0
 16 17  1  0
 17 18  2  0
M  END
>  <name>  (70) 
Car Nac Nd0 Car Car Car Car Car Car Nd0 Cs2 .=O Car Car Car Nac Car Car

>  <indices>  (70) 
[0, 1, 2]

>  <tasks>  (70) 
probe_placing close_aromatic_ring close_aromatic_ring close_aromatic_ring close_aromatic_ring ring_built build_to_Nd0 close_aromatic_ring no_task build_to_Nd0 build_DB_to_Cs2 build_SB_to_Cs2 close_aromatic_ring close_aromatic_ring close_aromatic_ring close_aromatic_ring

>  <prot_clashes>  (70) 
2

>  <NBS phar>  (70) 
0.22000000000000003

>  <NBS_non-phar>  (70) 
0.589385085635715

>  <NBS>  (70) 
0.809385085635715

>  <source_stage>  (70) 
scored

>  <source_iter>  (70) 
15

>  <source_parent_mol>  (70) 
0

>  <source_scenario>  (70) 
1 1 2 0 0 0 0 2 1 0 0 1 1 0 0

>  <source_rank_in_scored_call>  (70) 
1

>  <source_current_task>  (70) 
close_aromatic_ring

>  <scenario>  (70) 
1 1 2 0 0 0 0 2 1 0 0 1 1 0

>  <current_task>  (70) 
no_task

$$$$

     RDKit          3D

 18 20  0  0  0  0  0  0  0  0999 V2000
  -27.8779   -7.5815  -31.1793 C   0  0  0  0  0  0  0  0  0  0  0  0
  -27.5855   -6.6352  -32.0772 N   0  0  0  0  0  0  0  0  0  0  0  0
  -27.7543   -8.9219  -31.2047 N   0  0  0  0  0  0  0  0  0  0  0  0
  -27.7958   -5.3090  -31.8400 C   0  0  0  0  0  0  0  0  0  0  0  0
  -28.3299   -4.9112  -30.6330 C   0  0  0  0  0  0  0  0  0  0  0  0
  -28.6380   -5.8933  -29.6902 C   0  0  0  0  0  0  0  0  0  0  0  0
  -28.4146   -7.2391  -29.9548 C   0  0  0  0  0  0  0  0  0  0  0  0
  -28.2005   -9.4396  -30.0231 C   0  0  0  0  0  0  0  0  0  0  0  0
  -28.6205   -8.3878  -29.2244 C   0  0  0  0  0  0  0  0  0  0  0  0
  -29.1395   -8.4743  -27.9553 N   0  0  0  0  0  0  0  0  0  0  0  0
  -28.3087   -8.6036  -26.9314 C   0  0  0  0  0  0  0  0  0  0  0  0
  -27.0765   -8.5308  -26.8415 O   0  0  0  0  0  0  0  0  0  0  0  0
  -29.0066   -8.8677  -25.5950 C   0  0  0  0  0  0  0  0  0  0  0  0
  -28.4713   -9.8305  -24.8224 N   0  0  0  0  0  0  0  0  0  0  0  0
  -30.0693   -8.1537  -25.0839 C   0  0  0  0  0  0  0  0  0  0  0  0
  -30.5564   -8.4299  -23.8190 C   0  0  0  0  0  0  0  0  0  0  0  0
  -29.9867   -9.4313  -23.0365 C   0  0  0  0  0  0  0  0  0  0  0  0
  -28.9130  -10.1263  -23.5982 C   0  0  0  0  0  0  0  0  0  0  0  0
  1  2  2  0
  1  3  1  0
  2  4  1  0
  4  5  2  0
  5  6  1  0
  6  7  2  0
  1  7  1  0
  3  8  1  0
  8  9  2  0
  7  9  1  0
  9 10  1  0
 10 11  1  0
 11 12  2  0
 11 13  1  0
 13 14  2  0
 13 15  1  0
 15 16  2  0
 16 17  1  0
 14 18  1  0
 17 18  2  0
M  END
>  <name>  (71) 
Car Nac Nd0 Car Car Car Car Car Car Nd0 Cs2 .=O Car Nac Car Car Car Car

>  <indices>  (71) 
[0, 1, 2]

>  <tasks>  (71) 
probe_placing close_aromatic_ring close_aromatic_ring close_aromatic_ring close_aromatic_ring ring_built build_to_Nd0 close_aromatic_ring no_task build_to_Nd0 build_DB_to_Cs2 build_SB_to_Cs2 close_aromatic_ring close_aromatic_ring close_aromatic_ring close_aromatic_ring

>  <prot_clashes>  (71) 
5

>  <NBS phar>  (71) 
0.3

>  <NBS_non-phar>  (71) 
0.5453557968139648

>  <NBS>  (71) 
0.8453557968139649

>  <source_stage>  (71) 
scored

>  <source_iter>  (71) 
15

>  <source_parent_mol>  (71) 
0

>  <source_scenario>  (71) 
1 1 2 0 0 0 0 2 1 0 0 3 1 1 0

>  <source_rank_in_scored_call>  (71) 
1

>  <source_current_task>  (71) 
close_aromatic_ring

>  <scenario>  (71) 
1 1 2 0 0 0 0 2 1 0 0 3 1 1

>  <current_task>  (71) 
no_task

$$$$

     RDKit          3D

 15 17  0  0  0  0  0  0  0  0999 V2000
  -27.8779   -7.5815  -31.1793 C   0  0  0  0  0  0  0  0  0  0  0  0
  -27.5855   -6.6352  -32.0772 N   0  0  0  0  0  0  0  0  0  0  0  0
  -27.7543   -8.9219  -31.2047 N   0  0  0  0  0  0  0  0  0  0  0  0
  -27.7958   -5.3090  -31.8400 C   0  0  0  0  0  0  0  0  0  0  0  0
  -28.3299   -4.9112  -30.6330 C   0  0  0  0  0  0  0  0  0  0  0  0
  -28.6380   -5.8933  -29.6902 C   0  0  0  0  0  0  0  0  0  0  0  0
  -28.4146   -7.2391  -29.9548 C   0  0  0  0  0  0  0  0  0  0  0  0
  -28.2005   -9.4396  -30.0231 C   0  0  0  0  0  0  0  0  0  0  0  0
  -28.6205   -8.3878  -29.2244 C   0  0  0  0  0  0  0  0  0  0  0  0
  -28.6545   -3.6061  -30.1161 C   0  0  0  0  0  0  0  0  0  0  0  0
  -29.6522   -2.7991  -30.5727 N   0  0  0  0  0  0  0  0  0  0  0  0
  -27.8765   -3.1624  -29.0699 C   0  0  0  0  0  0  0  0  0  0  0  0
  -28.0713   -1.9240  -28.4639 C   0  0  0  0  0  0  0  0  0  0  0  0
  -29.8862   -1.5771  -30.0157 C   0  0  0  0  0  0  0  0  0  0  0  0
  -29.0944   -1.1280  -28.9526 C   0  0  0  0  0  0  0  0  0  0  0  0
  1  2  2  0
  1  3  1  0
  2  4  1  0
  4  5  2  0
  5  6  1  0
  6  7  2  0
  1  7  1  0
  3  8  1  0
  8  9  2  0
  7  9  1  0
  5 10  1  0
 10 11  2  0
 10 12  1  0
 12 13  2  0
 11 14  1  0
 14 15  2  0
 13 15  1  0
M  END
>  <name>  (72) 
Car Nac Nd0 Car Car Car Car Car Car Car Nac Car Car Car Car

>  <indices>  (72) 
[0, 1, 2]

>  <tasks>  (72) 
probe_placing close_aromatic_ring close_aromatic_ring close_aromatic_ring close_aromatic_ring ring_built build_to_Nd0 close_aromatic_ring no_task close_aromatic_ring close_aromatic_ring close_aromatic_ring close_aromatic_ring

>  <prot_clashes>  (72) 
3

>  <NBS phar>  (72) 
0.34

>  <NBS_non-phar>  (72) 
0.7489102045694987

>  <NBS>  (72) 
1.0889102045694987

>  <source_stage>  (72) 
scored

>  <source_iter>  (72) 
12

>  <source_parent_mol>  (72) 
0

>  <source_scenario>  (72) 
1 1 2 0 0 0 0 4 0 0 0 0

>  <source_rank_in_scored_call>  (72) 
0

>  <source_current_task>  (72) 
close_aromatic_ring

>  <scenario>  (72) 
1 1 2 0 0 0 0 4 0 0 0

>  <current_task>  (72) 
no_task

$$$$

     RDKit          3D

 15 17  0  0  0  0  0  0  0  0999 V2000
  -28.0110   -7.1730  -32.0440 C   0  0  0  0  0  0  0  0  0  0  0  0
  -27.4330   -6.0650  -32.5200 N   0  0  0  0  0  0  0  0  0  0  0  0
  -28.0620   -8.4360  -32.5050 N   0  0  0  0  0  0  0  0  0  0  0  0
  -27.5070   -4.8650  -31.8780 C   0  0  0  0  0  0  0  0  0  0  0  0
  -28.1990   -4.7720  -30.6900 C   0  0  0  0  0  0  0  0  0  0  0  0
  -28.8040   -5.9240  -30.1850 C   0  0  0  0  0  0  0  0  0  0  0  0
  -28.7160   -7.1360  -30.8580 C   0  0  0  0  0  0  0  0  0  0  0  0
  -28.7860   -9.2050  -31.6390 C   0  0  0  0  0  0  0  0  0  0  0  0
  -29.2030   -8.3970  -30.5930 C   0  0  0  0  0  0  0  0  0  0  0  0
  -28.4380   -3.6570  -29.8090 C   0  0  0  0  0  0  0  0  0  0  0  0
  -29.2180   -2.5770  -30.0930 N   0  0  0  0  0  0  0  0  0  0  0  0
  -27.8180   -3.7150  -28.5810 C   0  0  0  0  0  0  0  0  0  0  0  0
  -27.9560   -2.7150  -27.6230 C   0  0  0  0  0  0  0  0  0  0  0  0
  -29.3880   -1.5690  -29.1910 C   0  0  0  0  0  0  0  0  0  0  0  0
  -28.7550   -1.6300  -27.9440 C   0  0  0  0  0  0  0  0  0  0  0  0
  1  2  2  0
  1  3  1  0
  1  7  1  0
  2  4  1  0
  3  8  1  0
  4  5  2  0
  5  6  1  0
  5 10  1  0
  6  7  2  0
  7  9  1  0
  8  9  2  0
 10 11  2  0
 10 12  1  0
 11 14  1  0
 12 13  2  0
 13 15  1  0
 14 15  2  0
M  END
>  <name>  (73) 
Car Nac Nd0 Car Car Car Car Car Car Car Nac Car Car Car Car

>  <indices>  (73) 
[0, 1, 2]

>  <tasks>  (73) 
probe_placing close_aromatic_ring close_aromatic_ring close_aromatic_ring close_aromatic_ring ring_built build_to_Nd0 close_aromatic_ring no_task close_aromatic_ring close_aromatic_ring close_aromatic_ring close_aromatic_ring

>  <prot_clashes>  (73) 
2

>  <NBS phar>  (73) 
0.19999999999999998

>  <NBS_non-phar>  (73) 
0.6099044799804687

>  <NBS>  (73) 
0.8099044799804687

>  <source_stage>  (73) 
scored

>  <source_iter>  (73) 
12

>  <source_parent_mol>  (73) 
0

>  <source_scenario>  (73) 
1 1 2 0 0 0 0 4 0 0 0 0

>  <source_rank_in_scored_call>  (73) 
2

>  <source_current_task>  (73) 
close_aromatic_ring

>  <scenario>  (73) 
1 1 2 0 0 0 0 4 0 0 0

>  <current_task>  (73) 
no_task

$$$$

     RDKit          3D

 15 17  0  0  0  0  0  0  0  0999 V2000
  -27.8779   -7.5815  -31.1793 C   0  0  0  0  0  0  0  0  0  0  0  0
  -27.5855   -6.6352  -32.0772 N   0  0  0  0  0  0  0  0  0  0  0  0
  -27.7543   -8.9219  -31.2047 N   0  0  0  0  0  0  0  0  0  0  0  0
  -27.7958   -5.3090  -31.8400 C   0  0  0  0  0  0  0  0  0  0  0  0
  -28.3299   -4.9112  -30.6330 C   0  0  0  0  0  0  0  0  0  0  0  0
  -28.6380   -5.8933  -29.6902 C   0  0  0  0  0  0  0  0  0  0  0  0
  -28.4146   -7.2391  -29.9548 C   0  0  0  0  0  0  0  0  0  0  0  0
  -28.2005   -9.4396  -30.0231 C   0  0  0  0  0  0  0  0  0  0  0  0
  -28.6205   -8.3878  -29.2244 C   0  0  0  0  0  0  0  0  0  0  0  0
  -28.6583   -3.5528  -30.0902 C   0  0  0  0  0  0  0  0  0  0  0  0
  -29.6669   -2.7903  -30.5813 N   0  0  0  0  0  0  0  0  0  0  0  0
  -27.8666   -3.1373  -29.0437 C   0  0  0  0  0  0  0  0  0  0  0  0
  -28.1146   -1.9103  -28.4870 C   0  0  0  0  0  0  0  0  0  0  0  0
  -29.1376   -1.1279  -28.9793 C   0  0  0  0  0  0  0  0  0  0  0  0
  -29.9150   -1.5677  -30.0276 C   0  0  0  0  0  0  0  0  0  0  0  0
  1  2  2  0
  1  3  1  0
  2  4  1  0
  4  5  2  0
  5  6  1  0
  6  7  2  0
  1  7  1  0
  3  8  1  0
  8  9  2  0
  7  9  1  0
  5 10  1  0
 10 11  2  0
 10 12  1  0
 12 13  2  0
 13 14  1  0
 11 15  1  0
 14 15  2  0
M  END
>  <name>  (74) 
Car Nac Nd0 Car Car Car Car Car Car Car Nac Car Car Car Car

>  <indices>  (74) 
[0, 1, 2]

>  <tasks>  (74) 
probe_placing close_aromatic_ring close_aromatic_ring close_aromatic_ring close_aromatic_ring ring_built build_to_Nd0 close_aromatic_ring no_task close_aromatic_ring close_aromatic_ring close_aromatic_ring close_aromatic_ring

>  <prot_clashes>  (74) 
3

>  <NBS phar>  (74) 
0.34

>  <NBS_non-phar>  (74) 
0.744173812866211

>  <NBS>  (74) 
1.084173812866211

>  <source_stage>  (74) 
scored

>  <source_iter>  (74) 
12

>  <source_parent_mol>  (74) 
1

>  <source_scenario>  (74) 
1 1 2 0 0 0 0 4 0 0 0 1

>  <source_rank_in_scored_call>  (74) 
0

>  <source_current_task>  (74) 
close_aromatic_ring

>  <scenario>  (74) 
1 1 2 0 0 0 0 4 0 0 0

>  <current_task>  (74) 
no_task

$$$$

     RDKit          3D

 15 17  0  0  0  0  0  0  0  0999 V2000
  -27.8779   -7.5815  -31.1793 C   0  0  0  0  0  0  0  0  0  0  0  0
  -27.5855   -6.6352  -32.0772 N   0  0  0  0  0  0  0  0  0  0  0  0
  -27.7543   -8.9219  -31.2047 N   0  0  0  0  0  0  0  0  0  0  0  0
  -27.7958   -5.3090  -31.8400 C   0  0  0  0  0  0  0  0  0  0  0  0
  -28.3299   -4.9112  -30.6330 C   0  0  0  0  0  0  0  0  0  0  0  0
  -28.6380   -5.8933  -29.6902 C   0  0  0  0  0  0  0  0  0  0  0  0
  -28.4146   -7.2391  -29.9548 C   0  0  0  0  0  0  0  0  0  0  0  0
  -28.2005   -9.4396  -30.0231 C   0  0  0  0  0  0  0  0  0  0  0  0
  -28.6205   -8.3878  -29.2244 C   0  0  0  0  0  0  0  0  0  0  0  0
  -28.6275   -3.6068  -30.0899 C   0  0  0  0  0  0  0  0  0  0  0  0
  -29.7737   -2.9861  -30.4274 N   0  0  0  0  0  0  0  0  0  0  0  0
  -27.7642   -3.0965  -29.1211 C   0  0  0  0  0  0  0  0  0  0  0  0
  -28.1376   -1.9161  -28.5162 C   0  0  0  0  0  0  0  0  0  0  0  0
  -29.3323   -1.2790  -28.8752 C   0  0  0  0  0  0  0  0  0  0  0  0
  -30.1625   -1.8310  -29.8517 C   0  0  0  0  0  0  0  0  0  0  0  0
  1  2  2  0
  1  3  1  0
  2  4  1  0
  4  5  2  0
  5  6  1  0
  6  7  2  0
  1  7  1  0
  3  8  1  0
  8  9  2  0
  7  9  1  0
  5 10  1  0
 10 11  2  0
 10 12  1  0
 12 13  2  0
 13 14  1  0
 11 15  1  0
 14 15  2  0
M  END
>  <name>  (75) 
Car Nac Nd0 Car Car Car Car Car Car Car Nac Car Car Car Car

>  <indices>  (75) 
[0, 1, 2]

>  <tasks>  (75) 
probe_placing close_aromatic_ring close_aromatic_ring close_aromatic_ring close_aromatic_ring ring_built build_to_Nd0 close_aromatic_ring no_task close_aromatic_ring close_aromatic_ring close_aromatic_ring close_aromatic_ring

>  <prot_clashes>  (75) 
7

>  <NBS phar>  (75) 
0.34

>  <NBS_non-phar>  (75) 
0.6962638219197591

>  <NBS>  (75) 
1.036263821919759

>  <source_stage>  (75) 
scored

>  <source_iter>  (75) 
12

>  <source_parent_mol>  (75) 
1

>  <source_scenario>  (75) 
1 1 2 0 0 0 0 4 0 0 0 1

>  <source_rank_in_scored_call>  (75) 
1

>  <source_current_task>  (75) 
close_aromatic_ring

>  <scenario>  (75) 
1 1 2 0 0 0 0 4 0 0 0

>  <current_task>  (75) 
no_task

$$$$

     RDKit          3D

 15 17  0  0  0  0  0  0  0  0999 V2000
  -28.0000   -7.2720  -32.0650 C   0  0  0  0  0  0  0  0  0  0  0  0
  -27.4150   -6.1720  -32.5510 N   0  0  0  0  0  0  0  0  0  0  0  0
  -28.0970   -8.5280  -32.5390 N   0  0  0  0  0  0  0  0  0  0  0  0
  -27.4390   -4.9780  -31.8930 C   0  0  0  0  0  0  0  0  0  0  0  0
  -28.0850   -4.8830  -30.6800 C   0  0  0  0  0  0  0  0  0  0  0  0
  -28.6980   -6.0270  -30.1660 C   0  0  0  0  0  0  0  0  0  0  0  0
  -28.6620   -7.2330  -30.8550 C   0  0  0  0  0  0  0  0  0  0  0  0
  -28.8070   -9.2910  -31.6550 C   0  0  0  0  0  0  0  0  0  0  0  0
  -29.1680   -8.4850  -30.5860 C   0  0  0  0  0  0  0  0  0  0  0  0
  -28.2460   -3.7880  -29.7520 C   0  0  0  0  0  0  0  0  0  0  0  0
  -29.2050   -2.8660  -29.9630 N   0  0  0  0  0  0  0  0  0  0  0  0
  -27.4760   -3.8060  -28.5890 C   0  0  0  0  0  0  0  0  0  0  0  0
  -27.7410   -2.8300  -27.6540 C   0  0  0  0  0  0  0  0  0  0  0  0
  -28.7400   -1.8760  -27.8840 C   0  0  0  0  0  0  0  0  0  0  0  0
  -29.4840   -1.9010  -29.0650 C   0  0  0  0  0  0  0  0  0  0  0  0
  1  2  2  0
  1  3  1  0
  1  7  1  0
  2  4  1  0
  3  8  1  0
  4  5  2  0
  5  6  1  0
  5 10  1  0
  6  7  2  0
  7  9  1  0
  8  9  2  0
 10 11  2  0
 10 12  1  0
 11 15  1  0
 12 13  2  0
 13 14  1  0
 14 15  2  0
M  END
>  <name>  (76) 
Car Nac Nd0 Car Car Car Car Car Car Car Nac Car Car Car Car

>  <indices>  (76) 
[0, 1, 2]

>  <tasks>  (76) 
probe_placing close_aromatic_ring close_aromatic_ring close_aromatic_ring close_aromatic_ring ring_built build_to_Nd0 close_aromatic_ring no_task close_aromatic_ring close_aromatic_ring close_aromatic_ring close_aromatic_ring

>  <prot_clashes>  (76) 
4

>  <NBS phar>  (76) 
0.19999999999999998

>  <NBS_non-phar>  (76) 
0.6372994740804037

>  <NBS>  (76) 
0.8372994740804036

>  <source_stage>  (76) 
scored

>  <source_iter>  (76) 
12

>  <source_parent_mol>  (76) 
1

>  <source_scenario>  (76) 
1 1 2 0 0 0 0 4 0 0 0 1

>  <source_rank_in_scored_call>  (76) 
2

>  <source_current_task>  (76) 
close_aromatic_ring

>  <scenario>  (76) 
1 1 2 0 0 0 0 4 0 0 0

>  <current_task>  (76) 
no_task

$$$$

     RDKit          3D

 15 17  0  0  0  0  0  0  0  0999 V2000
  -27.9820   -7.1640  -32.0850 C   0  0  0  0  0  0  0  0  0  0  0  0
  -27.3720   -6.0850  -32.5880 N   0  0  0  0  0  0  0  0  0  0  0  0
  -28.0570   -8.4400  -32.5070 N   0  0  0  0  0  0  0  0  0  0  0  0
  -27.4270   -4.8630  -31.9850 C   0  0  0  0  0  0  0  0  0  0  0  0
  -28.1340   -4.7160  -30.8110 C   0  0  0  0  0  0  0  0  0  0  0  0
  -28.7740   -5.8370  -30.2790 C   0  0  0  0  0  0  0  0  0  0  0  0
  -28.7040   -7.0720  -30.9120 C   0  0  0  0  0  0  0  0  0  0  0  0
  -28.8110   -9.1630  -31.6280 C   0  0  0  0  0  0  0  0  0  0  0  0
  -29.2250   -8.3120  -30.6150 C   0  0  0  0  0  0  0  0  0  0  0  0
  -28.3610   -3.5260  -29.9290 C   0  0  0  0  0  0  0  0  0  0  0  0
  -29.1210   -2.4670  -30.3070 N   0  0  0  0  0  0  0  0  0  0  0  0
  -27.7510   -3.5870  -28.6980 C   0  0  0  0  0  0  0  0  0  0  0  0
  -27.9230   -2.5400  -27.8310 C   0  0  0  0  0  0  0  0  0  0  0  0
  -28.6940   -1.4600  -28.2060 C   0  0  0  0  0  0  0  0  0  0  0  0
  -29.2940   -1.4230  -29.4460 C   0  0  0  0  0  0  0  0  0  0  0  0
  1  2  2  0
  1  3  1  0
  1  7  1  0
  2  4  1  0
  3  8  1  0
  4  5  2  0
  5  6  1  0
  5 10  1  0
  6  7  2  0
  7  9  1  0
  8  9  2  0
 10 11  2  0
 10 12  1  0
 11 15  1  0
 12 13  2  0
 13 14  1  0
 14 15  2  0
M  END
>  <name>  (77) 
Car Nac Nd0 Car Car Car Car Car Car Car Nac Car Car Car Car

>  <indices>  (77) 
[0, 1, 2]

>  <tasks>  (77) 
probe_placing close_aromatic_ring close_aromatic_ring close_aromatic_ring close_aromatic_ring ring_built build_to_Nd0 close_aromatic_ring no_task close_aromatic_ring close_aromatic_ring close_aromatic_ring close_aromatic_ring

>  <prot_clashes>  (77) 
2

>  <NBS phar>  (77) 
0.15999999999999998

>  <NBS_non-phar>  (77) 
0.5804169972737631

>  <NBS>  (77) 
0.7404169972737631

>  <source_stage>  (77) 
scored

>  <source_iter>  (77) 
12

>  <source_parent_mol>  (77) 
1

>  <source_scenario>  (77) 
1 1 2 0 0 0 0 4 0 0 0 1

>  <source_rank_in_scored_call>  (77) 
3

>  <source_current_task>  (77) 
close_aromatic_ring

>  <scenario>  (77) 
1 1 2 0 0 0 0 4 0 0 0

>  <current_task>  (77) 
no_task

$$$$

     RDKit          3D

 15 17  0  0  0  0  0  0  0  0999 V2000
  -27.8779   -7.5815  -31.1793 C   0  0  0  0  0  0  0  0  0  0  0  0
  -27.5855   -6.6352  -32.0772 N   0  0  0  0  0  0  0  0  0  0  0  0
  -27.7543   -8.9219  -31.2047 N   0  0  0  0  0  0  0  0  0  0  0  0
  -27.7958   -5.3090  -31.8400 C   0  0  0  0  0  0  0  0  0  0  0  0
  -28.3299   -4.9112  -30.6330 C   0  0  0  0  0  0  0  0  0  0  0  0
  -28.6380   -5.8933  -29.6902 C   0  0  0  0  0  0  0  0  0  0  0  0
  -28.4146   -7.2391  -29.9548 C   0  0  0  0  0  0  0  0  0  0  0  0
  -28.2005   -9.4396  -30.0231 C   0  0  0  0  0  0  0  0  0  0  0  0
  -28.6205   -8.3878  -29.2244 C   0  0  0  0  0  0  0  0  0  0  0  0
  -28.6561   -3.5920  -30.1049 C   0  0  0  0  0  0  0  0  0  0  0  0
  -29.6376   -2.7870  -30.5508 N   0  0  0  0  0  0  0  0  0  0  0  0
  -27.8473   -3.1956  -29.0624 C   0  0  0  0  0  0  0  0  0  0  0  0
  -29.9032   -1.5708  -30.0359 C   0  0  0  0  0  0  0  0  0  0  0  0
  -29.1098   -1.1456  -28.9902 C   0  0  0  0  0  0  0  0  0  0  0  0
  -28.0762   -1.9450  -28.4898 C   0  0  0  0  0  0  0  0  0  0  0  0
  1  2  2  0
  1  3  1  0
  2  4  1  0
  4  5  2  0
  5  6  1  0
  6  7  2  0
  1  7  1  0
  3  8  1  0
  8  9  2  0
  7  9  1  0
  5 10  1  0
 10 11  2  0
 10 12  1  0
 11 13  1  0
 13 14  2  0
 12 15  2  0
 14 15  1  0
M  END
>  <name>  (78) 
Car Nac Nd0 Car Car Car Car Car Car Car Nac Car Car Car Car

>  <indices>  (78) 
[0, 1, 2]

>  <tasks>  (78) 
probe_placing close_aromatic_ring close_aromatic_ring close_aromatic_ring close_aromatic_ring ring_built build_to_Nd0 close_aromatic_ring no_task close_aromatic_ring close_aromatic_ring close_aromatic_ring close_aromatic_ring

>  <prot_clashes>  (78) 
3

>  <NBS phar>  (78) 
0.34

>  <NBS_non-phar>  (78) 
0.7470128377278645

>  <NBS>  (78) 
1.0870128377278645

>  <source_stage>  (78) 
scored

>  <source_iter>  (78) 
12

>  <source_parent_mol>  (78) 
0

>  <source_scenario>  (78) 
1 1 2 0 0 0 0 4 0 0 2 0

>  <source_rank_in_scored_call>  (78) 
0

>  <source_current_task>  (78) 
close_aromatic_ring

>  <scenario>  (78) 
1 1 2 0 0 0 0 4 0 0 2

>  <current_task>  (78) 
no_task

$$$$

     RDKit          3D

 15 17  0  0  0  0  0  0  0  0999 V2000
  -27.9580   -7.2120  -32.0370 C   0  0  0  0  0  0  0  0  0  0  0  0
  -27.3660   -6.1090  -32.5070 N   0  0  0  0  0  0  0  0  0  0  0  0
  -28.0100   -8.4760  -32.4960 N   0  0  0  0  0  0  0  0  0  0  0  0
  -27.4440   -4.9060  -31.8690 C   0  0  0  0  0  0  0  0  0  0  0  0
  -28.1550   -4.8050  -30.6930 C   0  0  0  0  0  0  0  0  0  0  0  0
  -28.7760   -5.9520  -30.1950 C   0  0  0  0  0  0  0  0  0  0  0  0
  -28.6840   -7.1670  -30.8640 C   0  0  0  0  0  0  0  0  0  0  0  0
  -28.7530   -9.2380  -31.6400 C   0  0  0  0  0  0  0  0  0  0  0  0
  -29.1830   -8.4240  -30.6040 C   0  0  0  0  0  0  0  0  0  0  0  0
  -28.4050   -3.6770  -29.8050 C   0  0  0  0  0  0  0  0  0  0  0  0
  -29.1600   -2.6010  -30.0930 N   0  0  0  0  0  0  0  0  0  0  0  0
  -27.7810   -3.7850  -28.5810 C   0  0  0  0  0  0  0  0  0  0  0  0
  -29.3620   -1.5760  -29.2430 C   0  0  0  0  0  0  0  0  0  0  0  0
  -28.7500   -1.6550  -28.0090 C   0  0  0  0  0  0  0  0  0  0  0  0
  -27.9550   -2.7520  -27.6600 C   0  0  0  0  0  0  0  0  0  0  0  0
  1  2  2  0
  1  3  1  0
  1  7  1  0
  2  4  1  0
  3  8  1  0
  4  5  2  0
  5  6  1  0
  5 10  1  0
  6  7  2  0
  7  9  1  0
  8  9  2  0
 10 11  2  0
 10 12  1  0
 11 13  1  0
 12 15  2  0
 13 14  2  0
 14 15  1  0
M  END
>  <name>  (79) 
Car Nac Nd0 Car Car Car Car Car Car Car Nac Car Car Car Car

>  <indices>  (79) 
[0, 1, 2]

>  <tasks>  (79) 
probe_placing close_aromatic_ring close_aromatic_ring close_aromatic_ring close_aromatic_ring ring_built build_to_Nd0 close_aromatic_ring no_task close_aromatic_ring close_aromatic_ring close_aromatic_ring close_aromatic_ring

>  <prot_clashes>  (79) 
2

>  <NBS phar>  (79) 
0.19999999999999998

>  <NBS_non-phar>  (79) 
0.6156471888224284

>  <NBS>  (79) 
0.8156471888224284

>  <source_stage>  (79) 
scored

>  <source_iter>  (79) 
12

>  <source_parent_mol>  (79) 
0

>  <source_scenario>  (79) 
1 1 2 0 0 0 0 4 0 0 2 0

>  <source_rank_in_scored_call>  (79) 
2

>  <source_current_task>  (79) 
close_aromatic_ring

>  <scenario>  (79) 
1 1 2 0 0 0 0 4 0 0 2

>  <current_task>  (79) 
no_task

$$$$

     RDKit          3D

 16 18  0  0  0  0  0  0  0  0999 V2000
  -27.8779   -7.5815  -31.1793 C   0  0  0  0  0  0  0  0  0  0  0  0
  -27.5855   -6.6352  -32.0772 N   0  0  0  0  0  0  0  0  0  0  0  0
  -27.7543   -8.9219  -31.2047 N   0  0  0  0  0  0  0  0  0  0  0  0
  -27.7958   -5.3090  -31.8400 C   0  0  0  0  0  0  0  0  0  0  0  0
  -28.3299   -4.9112  -30.6330 C   0  0  0  0  0  0  0  0  0  0  0  0
  -28.6380   -5.8933  -29.6902 C   0  0  0  0  0  0  0  0  0  0  0  0
  -28.4146   -7.2391  -29.9548 C   0  0  0  0  0  0  0  0  0  0  0  0
  -28.2005   -9.4396  -30.0231 C   0  0  0  0  0  0  0  0  0  0  0  0
  -28.6205   -8.3878  -29.2244 C   0  0  0  0  0  0  0  0  0  0  0  0
  -28.6984   -3.5796  -30.1387 C   0  0  0  0  0  0  0  0  0  0  0  0
  -29.6392   -2.8287  -30.5863 N   0  0  0  0  0  0  0  0  0  0  0  0
  -27.7963   -3.2292  -29.0189 C   0  0  0  0  0  0  0  0  0  0  0  0
  -29.8741   -1.5617  -30.0016 C   0  0  0  0  0  0  0  0  0  0  0  0
  -29.1577   -1.0964  -28.9917 C   0  0  0  0  0  0  0  0  0  0  0  0
  -28.1186   -1.9247  -28.4965 N   0  0  0  0  0  0  0  0  0  0  0  0
  -26.8857   -3.9595  -28.5879 O   0  0  0  0  0  0  0  0  0  0  0  0
  1  2  2  0
  1  3  1  0
  2  4  1  0
  4  5  2  0
  5  6  1  0
  6  7  2  0
  1  7  1  0
  3  8  1  0
  8  9  2  0
  7  9  1  0
  5 10  1  0
 10 11  2  0
 10 12  1  0
 11 13  1  0
 13 14  2  0
 14 15  1  0
 12 15  1  0
 12 16  2  0
M  END
>  <name>  (80) 
Car Nac Nd0 Car Car Car Car Car Car Car Nac Car Car Car Nd0 .=O

>  <indices>  (80) 
[0, 1, 2]

>  <tasks>  (80) 
probe_placing close_aromatic_ring close_aromatic_ring close_aromatic_ring close_aromatic_ring ring_built build_to_Nd0 close_aromatic_ring no_task close_aromatic_ring close_aromatic_ring close_aromatic_ring close_aromatic_ring close_aromatic_ring

>  <prot_clashes>  (80) 
2

>  <NBS phar>  (80) 
0.32

>  <NBS_non-phar>  (80) 
0.6834808588027954

>  <NBS>  (80) 
1.0034808588027955

>  <source_stage>  (80) 
scored

>  <source_iter>  (80) 
13

>  <source_parent_mol>  (80) 
0

>  <source_scenario>  (80) 
1 1 2 0 0 0 0 4 0 0 2 0 0

>  <source_rank_in_scored_call>  (80) 
0

>  <source_current_task>  (80) 
fix_Car

>  <scenario>  (80) 
1 1 2 0 0 0 0 4 0 0 2 0

>  <current_task>  (80) 
no_task

$$$$

     RDKit          3D

 16 18  0  0  0  0  0  0  0  0999 V2000
  -28.0650   -6.9840  -32.0810 C   0  0  0  0  0  0  0  0  0  0  0  0
  -27.5040   -5.8940  -32.6150 N   0  0  0  0  0  0  0  0  0  0  0  0
  -28.1330   -8.2620  -32.4980 N   0  0  0  0  0  0  0  0  0  0  0  0
  -27.5560   -4.6720  -32.0120 C   0  0  0  0  0  0  0  0  0  0  0  0
  -28.2070   -4.5370  -30.8050 C   0  0  0  0  0  0  0  0  0  0  0  0
  -28.7950   -5.6710  -30.2400 C   0  0  0  0  0  0  0  0  0  0  0  0
  -28.7300   -6.9060  -30.8750 C   0  0  0  0  0  0  0  0  0  0  0  0
  -28.8270   -9.0000  -31.5820 C   0  0  0  0  0  0  0  0  0  0  0  0
  -29.2090   -8.1560  -30.5510 C   0  0  0  0  0  0  0  0  0  0  0  0
  -28.4520   -3.3540  -29.9730 C   0  0  0  0  0  0  0  0  0  0  0  0
  -29.1940   -2.3490  -30.2690 N   0  0  0  0  0  0  0  0  0  0  0  0
  -27.6930   -3.5030  -28.7110 C   0  0  0  0  0  0  0  0  0  0  0  0
  -29.3320   -1.2760  -29.3570 C   0  0  0  0  0  0  0  0  0  0  0  0
  -28.7210   -1.2510  -28.1840 C   0  0  0  0  0  0  0  0  0  0  0  0
  -27.9010   -2.3610  -27.8560 N   0  0  0  0  0  0  0  0  0  0  0  0
  -26.9750   -4.4780  -28.4270 O   0  0  0  0  0  0  0  0  0  0  0  0
  1  2  2  0
  1  3  1  0
  1  7  1  0
  2  4  1  0
  3  8  1  0
  4  5  2  0
  5  6  1  0
  5 10  1  0
  6  7  2  0
  7  9  1  0
  8  9  2  0
 10 11  2  0
 10 12  1  0
 11 13  1  0
 12 16  2  0
 12 15  1  0
 13 14  2  0
 14 15  1  0
M  END
>  <name>  (81) 
Car Nac Nd0 Car Car Car Car Car Car Car Nac Car Car Car Nd0 .=O

>  <indices>  (81) 
[0, 1, 2]

>  <tasks>  (81) 
probe_placing close_aromatic_ring close_aromatic_ring close_aromatic_ring close_aromatic_ring ring_built build_to_Nd0 close_aromatic_ring no_task close_aromatic_ring close_aromatic_ring close_aromatic_ring close_aromatic_ring close_aromatic_ring

>  <prot_clashes>  (81) 
2

>  <NBS phar>  (81) 
0.13999999999999999

>  <NBS_non-phar>  (81) 
0.5772613286972046

>  <NBS>  (81) 
0.7172613286972046

>  <source_stage>  (81) 
scored

>  <source_iter>  (81) 
13

>  <source_parent_mol>  (81) 
0

>  <source_scenario>  (81) 
1 1 2 0 0 0 0 4 0 0 2 0 0

>  <source_rank_in_scored_call>  (81) 
6

>  <source_current_task>  (81) 
fix_Car

>  <scenario>  (81) 
1 1 2 0 0 0 0 4 0 0 2 0

>  <current_task>  (81) 
no_task

$$$$

     RDKit          3D

 14 16  0  0  0  0  0  0  0  0999 V2000
  -27.8779   -7.5815  -31.1793 C   0  0  0  0  0  0  0  0  0  0  0  0
  -27.5855   -6.6352  -32.0772 N   0  0  0  0  0  0  0  0  0  0  0  0
  -27.7543   -8.9219  -31.2047 N   0  0  0  0  0  0  0  0  0  0  0  0
  -27.7958   -5.3090  -31.8400 C   0  0  0  0  0  0  0  0  0  0  0  0
  -28.3299   -4.9112  -30.6330 C   0  0  0  0  0  0  0  0  0  0  0  0
  -28.6380   -5.8933  -29.6902 C   0  0  0  0  0  0  0  0  0  0  0  0
  -28.4146   -7.2391  -29.9548 C   0  0  0  0  0  0  0  0  0  0  0  0
  -28.2005   -9.4396  -30.0231 C   0  0  0  0  0  0  0  0  0  0  0  0
  -28.6205   -8.3878  -29.2244 C   0  0  0  0  0  0  0  0  0  0  0  0
  -28.6618   -3.6581  -30.1360 C   0  0  0  0  0  0  0  0  0  0  0  0
  -29.6079   -2.7594  -30.4856 N   0  0  0  0  0  0  0  0  0  0  0  0
  -29.4950   -1.6357  -29.7507 C   0  0  0  0  0  0  0  0  0  0  0  0
  -27.9414   -3.0710  -29.1538 N   0  0  0  0  0  0  0  0  0  0  0  0
  -28.4253   -1.8377  -28.8970 C   0  0  0  0  0  0  0  0  0  0  0  0
  1  2  2  0
  1  3  1  0
  2  4  1  0
  4  5  2  0
  5  6  1  0
  6  7  2  0
  1  7  1  0
  3  8  1  0
  8  9  2  0
  7  9  1  0
  5 10  1  0
 10 11  2  0
 11 12  1  0
 10 13  1  0
 13 14  1  0
 12 14  2  0
M  END
>  <name>  (82) 
Car Nac Nd0 Car Car Car Car Car Car Car Nac Car Nd0 Car

>  <indices>  (82) 
[0, 1, 2]

>  <tasks>  (82) 
probe_placing close_aromatic_ring close_aromatic_ring close_aromatic_ring close_aromatic_ring ring_built build_to_Nd0 close_aromatic_ring no_task close_aromatic_ring close_aromatic_ring close_aromatic_ring

>  <prot_clashes>  (82) 
2

>  <NBS phar>  (82) 
0.32

>  <NBS_non-phar>  (82) 
0.6624625069754464

>  <NBS>  (82) 
0.9824625069754465

>  <source_stage>  (82) 
scored

>  <source_iter>  (82) 
11

>  <source_parent_mol>  (82) 
2

>  <source_scenario>  (82) 
1 1 2 0 0 0 0 4 0 1 2

>  <source_rank_in_scored_call>  (82) 
0

>  <source_current_task>  (82) 
close_aromatic_ring

>  <scenario>  (82) 
1 1 2 0 0 0 0 4 0 1

>  <current_task>  (82) 
no_task

$$$$

     RDKit          3D

 14 16  0  0  0  0  0  0  0  0999 V2000
  -28.0430   -7.1000  -32.0830 C   0  0  0  0  0  0  0  0  0  0  0  0
  -27.4800   -5.9830  -32.5550 N   0  0  0  0  0  0  0  0  0  0  0  0
  -28.1220   -8.3510  -32.5750 N   0  0  0  0  0  0  0  0  0  0  0  0
  -27.5190   -4.7990  -31.8790 C   0  0  0  0  0  0  0  0  0  0  0  0
  -28.1580   -4.7350  -30.6590 C   0  0  0  0  0  0  0  0  0  0  0  0
  -28.7480   -5.8970  -30.1590 C   0  0  0  0  0  0  0  0  0  0  0  0
  -28.6960   -7.0920  -30.8670 C   0  0  0  0  0  0  0  0  0  0  0  0
  -28.8120   -9.1380  -31.6990 C   0  0  0  0  0  0  0  0  0  0  0  0
  -29.1790   -8.3560  -30.6150 C   0  0  0  0  0  0  0  0  0  0  0  0
  -28.3650   -3.6830  -29.7770 C   0  0  0  0  0  0  0  0  0  0  0  0
  -29.1010   -2.5530  -29.8620 N   0  0  0  0  0  0  0  0  0  0  0  0
  -28.9280   -1.7870  -28.7670 C   0  0  0  0  0  0  0  0  0  0  0  0
  -27.7160   -3.6120  -28.5930 N   0  0  0  0  0  0  0  0  0  0  0  0
  -28.0390   -2.4680  -27.9540 C   0  0  0  0  0  0  0  0  0  0  0  0
  1  3  1  0
  1  2  2  0
  1  7  1  0
  2  4  1  0
  3  8  1  0
  4  5  2  0
  5  6  1  0
  5 10  1  0
  6  7  2  0
  7  9  1  0
  8  9  2  0
 10 11  2  0
 10 13  1  0
 11 12  1  0
 12 14  2  0
 13 14  1  0
M  END
>  <name>  (83) 
Car Nac Nd0 Car Car Car Car Car Car Car Nac Car Nd0 Car

>  <indices>  (83) 
[0, 1, 2]

>  <tasks>  (83) 
probe_placing close_aromatic_ring close_aromatic_ring close_aromatic_ring close_aromatic_ring ring_built build_to_Nd0 close_aromatic_ring no_task close_aromatic_ring close_aromatic_ring close_aromatic_ring

>  <prot_clashes>  (83) 
2

>  <NBS phar>  (83) 
0.13999999999999999

>  <NBS_non-phar>  (83) 
0.6524442945207868

>  <NBS>  (83) 
0.7924442945207868

>  <source_stage>  (83) 
scored

>  <source_iter>  (83) 
11

>  <source_parent_mol>  (83) 
2

>  <source_scenario>  (83) 
1 1 2 0 0 0 0 4 0 1 2

>  <source_rank_in_scored_call>  (83) 
1

>  <source_current_task>  (83) 
close_aromatic_ring

>  <scenario>  (83) 
1 1 2 0 0 0 0 4 0 1

>  <current_task>  (83) 
no_task

$$$$

     RDKit          3D

 16 18  0  0  0  0  0  0  0  0999 V2000
  -27.8779   -7.5815  -31.1793 C   0  0  0  0  0  0  0  0  0  0  0  0
  -27.5855   -6.6352  -32.0772 N   0  0  0  0  0  0  0  0  0  0  0  0
  -27.7543   -8.9219  -31.2047 N   0  0  0  0  0  0  0  0  0  0  0  0
  -27.7958   -5.3090  -31.8400 C   0  0  0  0  0  0  0  0  0  0  0  0
  -28.3299   -4.9112  -30.6330 C   0  0  0  0  0  0  0  0  0  0  0  0
  -28.6380   -5.8933  -29.6902 C   0  0  0  0  0  0  0  0  0  0  0  0
  -28.4146   -7.2391  -29.9548 C   0  0  0  0  0  0  0  0  0  0  0  0
  -28.2005   -9.4396  -30.0231 C   0  0  0  0  0  0  0  0  0  0  0  0
  -28.6205   -8.3878  -29.2244 C   0  0  0  0  0  0  0  0  0  0  0  0
  -28.7399   -3.6194  -30.1438 C   0  0  0  0  0  0  0  0  0  0  0  0
  -29.5507   -2.8922  -30.8369 N   0  0  0  0  0  0  0  0  0  0  0  0
  -27.9746   -3.1094  -29.0575 N   0  0  0  0  0  0  0  0  0  0  0  0
  -28.0305   -1.7283  -28.6244 C   0  0  0  0  0  0  0  0  0  0  0  0
  -28.9848   -0.9749  -29.4771 C   0  0  0  0  0  0  0  0  0  0  0  0
  -29.6621   -1.5205  -30.4726 C   0  0  0  0  0  0  0  0  0  0  0  0
  -27.3779   -1.2463  -27.6810 O   0  0  0  0  0  0  0  0  0  0  0  0
  1  2  2  0
  1  3  1  0
  2  4  1  0
  4  5  2  0
  5  6  1  0
  6  7  2  0
  1  7  1  0
  3  8  1  0
  8  9  2  0
  7  9  1  0
  5 10  1  0
 10 11  2  0
 10 12  1  0
 12 13  1  0
 13 14  1  0
 11 15  1  0
 14 15  2  0
 13 16  2  0
M  END
>  <name>  (84) 
Car Nac Nd0 Car Car Car Car Car Car Car Nac Nd0 Car Car Car .=O

>  <indices>  (84) 
[0, 1, 2]

>  <tasks>  (84) 
probe_placing close_aromatic_ring close_aromatic_ring close_aromatic_ring close_aromatic_ring ring_built build_to_Nd0 close_aromatic_ring no_task close_aromatic_ring close_aromatic_ring close_aromatic_ring close_aromatic_ring close_aromatic_ring

>  <prot_clashes>  (84) 
1

>  <NBS phar>  (84) 
0.32

>  <NBS_non-phar>  (84) 
0.6901453733444214

>  <NBS>  (84) 
1.0101453733444214

>  <source_stage>  (84) 
scored

>  <source_iter>  (84) 
13

>  <source_parent_mol>  (84) 
0

>  <source_scenario>  (84) 
1 1 2 0 0 0 0 4 0 2 0 1 0

>  <source_rank_in_scored_call>  (84) 
3

>  <source_current_task>  (84) 
fix_Car

>  <scenario>  (84) 
1 1 2 0 0 0 0 4 0 2 0 1

>  <current_task>  (84) 
no_task

$$$$

     RDKit          3D

 15 17  0  0  0  0  0  0  0  0999 V2000
  -28.0370   -6.9020  -32.0410 C   0  0  0  0  0  0  0  0  0  0  0  0
  -27.6740   -5.9300  -32.8850 N   0  0  0  0  0  0  0  0  0  0  0  0
  -28.1070   -8.2390  -32.1780 N   0  0  0  0  0  0  0  0  0  0  0  0
  -27.6780   -4.6130  -32.5330 C   0  0  0  0  0  0  0  0  0  0  0  0
  -28.0660   -4.2520  -31.2600 C   0  0  0  0  0  0  0  0  0  0  0  0
  -28.4460   -5.2600  -30.3730 C   0  0  0  0  0  0  0  0  0  0  0  0
  -28.4350   -6.5960  -30.7560 C   0  0  0  0  0  0  0  0  0  0  0  0
  -28.5420   -8.7910  -31.0070 C   0  0  0  0  0  0  0  0  0  0  0  0
  -28.7510   -7.7650  -30.1000 C   0  0  0  0  0  0  0  0  0  0  0  0
  -28.1820   -2.9350  -30.6090 C   0  0  0  0  0  0  0  0  0  0  0  0
  -27.2130   -2.3320  -29.8310 C   0  0  0  0  0  0  0  0  0  0  0  0
  -29.3320   -2.2680  -30.8000 N   0  0  0  0  0  0  0  0  0  0  0  0
  -27.4210   -1.0840  -29.2690 C   0  0  0  0  0  0  0  0  0  0  0  0
  -28.6170   -0.4240  -29.4860 C   0  0  0  0  0  0  0  0  0  0  0  0
  -29.5660   -1.0490  -30.2660 C   0  0  0  0  0  0  0  0  0  0  0  0
  1  2  2  0
  1  3  1  0
  1  7  1  0
  2  4  1  0
  3  8  1  0
  4  5  2  0
  5 10  1  0
  5  6  1  0
  6  7  2  0
  7  9  1  0
  8  9  2  0
 10 12  1  0
 10 11  2  0
 11 13  1  0
 12 15  2  0
 13 14  2  0
 14 15  1  0
M  END
>  <name>  (85) 
Car Nac Nd0 Car Car Car Car Car Car Car Car Nac Car Car Car

>  <indices>  (85) 
[0, 1, 2]

>  <tasks>  (85) 
probe_placing close_aromatic_ring close_aromatic_ring close_aromatic_ring close_aromatic_ring ring_built build_to_Nd0 close_aromatic_ring no_task close_aromatic_ring close_aromatic_ring close_aromatic_ring close_aromatic_ring

>  <prot_clashes>  (85) 
2

>  <NBS phar>  (85) 
0.15999999999999998

>  <NBS_non-phar>  (85) 
0.573036257425944

>  <NBS>  (85) 
0.7330362574259439

>  <source_stage>  (85) 
scored

>  <source_iter>  (85) 
12

>  <source_parent_mol>  (85) 
0

>  <source_scenario>  (85) 
1 1 2 0 0 0 0 4 2 0 0 0

>  <source_rank_in_scored_call>  (85) 
1

>  <source_current_task>  (85) 
close_aromatic_ring

>  <scenario>  (85) 
1 1 2 0 0 0 0 4 2 0 0

>  <current_task>  (85) 
no_task

$$$$

     RDKit          3D

 16 18  0  0  0  0  0  0  0  0999 V2000
  -27.9610   -6.4640  -31.9150 C   0  0  0  0  0  0  0  0  0  0  0  0
  -27.4400   -5.3100  -32.3460 N   0  0  0  0  0  0  0  0  0  0  0  0
  -28.0580   -7.6810  -32.4830 N   0  0  0  0  0  0  0  0  0  0  0  0
  -27.4500   -4.1740  -31.5920 C   0  0  0  0  0  0  0  0  0  0  0  0
  -28.0140   -4.1980  -30.3350 C   0  0  0  0  0  0  0  0  0  0  0  0
  -28.5600   -5.3980  -29.8770 C   0  0  0  0  0  0  0  0  0  0  0  0
  -28.5390   -6.5430  -30.6640 C   0  0  0  0  0  0  0  0  0  0  0  0
  -28.6850   -8.5340  -31.6190 C   0  0  0  0  0  0  0  0  0  0  0  0
  -28.9930   -7.8280  -30.4670 C   0  0  0  0  0  0  0  0  0  0  0  0
  -28.1230   -3.1370  -29.2640 C   0  0  0  0  0  0  0  0  0  0  0  0
  -27.2540   -2.9600  -28.2900 C   0  0  0  0  0  0  0  0  0  0  0  0
  -29.3000   -2.3420  -29.4120 N   0  0  0  0  0  0  0  0  0  0  0  0
  -27.3680   -1.9350  -27.2310 C   0  0  0  0  0  0  0  0  0  0  0  0
  -28.5790   -1.1820  -27.4550 N   0  0  0  0  0  0  0  0  0  0  0  0
  -29.4840   -1.4120  -28.5230 C   0  0  0  0  0  0  0  0  0  0  0  0
  -26.5580   -1.7520  -26.3040 O   0  0  0  0  0  0  0  0  0  0  0  0
  1  3  1  0
  1  2  2  0
  1  7  1  0
  2  4  1  0
  3  8  1  0
  4  5  2  0
  5  6  1  0
  5 10  1  0
  6  7  2  0
  7  9  1  0
  8  9  2  0
 10 12  1  0
 10 11  2  0
 11 13  1  0
 12 15  2  0
 13 14  1  0
 13 16  2  0
 14 15  1  0
M  END
>  <name>  (86) 
Car Nac Nd0 Car Car Car Car Car Car Car Car Nac Car Nd0 Car .=O

>  <indices>  (86) 
[0, 1, 2]

>  <tasks>  (86) 
probe_placing close_aromatic_ring close_aromatic_ring close_aromatic_ring close_aromatic_ring ring_built build_to_Nd0 close_aromatic_ring no_task close_aromatic_ring close_aromatic_ring close_aromatic_ring close_aromatic_ring close_aromatic_ring

>  <prot_clashes>  (86) 
2

>  <NBS phar>  (86) 
0.18

>  <NBS_non-phar>  (86) 
0.6330480575561523

>  <NBS>  (86) 
0.8130480575561523

>  <source_stage>  (86) 
scored

>  <source_iter>  (86) 
13

>  <source_parent_mol>  (86) 
0

>  <source_scenario>  (86) 
1 1 2 0 0 0 0 4 2 0 0 2 0

>  <source_rank_in_scored_call>  (86) 
3

>  <source_current_task>  (86) 
fix_Car

>  <scenario>  (86) 
1 1 2 0 0 0 0 4 2 0 0 2

>  <current_task>  (86) 
no_task

$$$$

     RDKit          3D

 16 18  0  0  0  0  0  0  0  0999 V2000
  -28.0100   -6.9450  -32.0390 C   0  0  0  0  0  0  0  0  0  0  0  0
  -27.4320   -5.8270  -32.4930 N   0  0  0  0  0  0  0  0  0  0  0  0
  -28.1290   -8.1790  -32.5640 N   0  0  0  0  0  0  0  0  0  0  0  0
  -27.4290   -4.6630  -31.7830 C   0  0  0  0  0  0  0  0  0  0  0  0
  -28.0400   -4.6180  -30.5490 C   0  0  0  0  0  0  0  0  0  0  0  0
  -28.6460   -5.7800  -30.0680 C   0  0  0  0  0  0  0  0  0  0  0  0
  -28.6370   -6.9550  -30.8100 C   0  0  0  0  0  0  0  0  0  0  0  0
  -28.8180   -8.9750  -31.6940 C   0  0  0  0  0  0  0  0  0  0  0  0
  -29.1440   -8.2150  -30.5820 C   0  0  0  0  0  0  0  0  0  0  0  0
  -28.1510   -3.5130  -29.5240 C   0  0  0  0  0  0  0  0  0  0  0  0
  -27.3130   -3.3280  -28.5240 C   0  0  0  0  0  0  0  0  0  0  0  0
  -29.2920   -2.6840  -29.7470 N   0  0  0  0  0  0  0  0  0  0  0  0
  -27.4300   -2.2590  -27.5100 C   0  0  0  0  0  0  0  0  0  0  0  0
  -28.6040   -1.4740  -27.8090 N   0  0  0  0  0  0  0  0  0  0  0  0
  -29.4760   -1.7150  -28.9020 C   0  0  0  0  0  0  0  0  0  0  0  0
  -26.6493   -2.0681  -26.5601 O   0  0  0  0  0  0  0  0  0  0  0  0
  1  3  1  0
  1  2  2  0
  1  7  1  0
  2  4  1  0
  3  8  1  0
  4  5  2  0
  5  6  1  0
  5 10  1  0
  6  7  2  0
  7  9  1  0
  8  9  2  0
 10 12  1  0
 10 11  2  0
 11 13  1  0
 12 15  2  0
 13 14  1  0
 14 15  1  0
 13 16  2  0
M  END
>  <name>  (87) 
Car Nac Nd0 Car Car Car Car Car Car Car Car Nac Car Nd0 Car .=O

>  <indices>  (87) 
[0, 1, 2]

>  <tasks>  (87) 
probe_placing close_aromatic_ring close_aromatic_ring close_aromatic_ring close_aromatic_ring ring_built build_to_Nd0 close_aromatic_ring no_task close_aromatic_ring close_aromatic_ring close_aromatic_ring close_aromatic_ring close_aromatic_ring

>  <prot_clashes>  (87) 
5

>  <NBS phar>  (87) 
0.18

>  <NBS_non-phar>  (87) 
0.6055246591567993

>  <NBS>  (87) 
0.7855246591567993

>  <source_stage>  (87) 
scored

>  <source_iter>  (87) 
13

>  <source_parent_mol>  (87) 
0

>  <source_scenario>  (87) 
1 1 2 0 0 0 0 4 2 0 0 2 0

>  <source_rank_in_scored_call>  (87) 
8

>  <source_current_task>  (87) 
fix_Car

>  <scenario>  (87) 
1 1 2 0 0 0 0 4 2 0 0 2

>  <current_task>  (87) 
no_task

$$$$

     RDKit          3D

 15 17  0  0  0  0  0  0  0  0999 V2000
  -27.9980   -6.9300  -32.0570 C   0  0  0  0  0  0  0  0  0  0  0  0
  -27.4170   -5.8020  -32.4820 N   0  0  0  0  0  0  0  0  0  0  0  0
  -28.1210   -8.1490  -32.6120 N   0  0  0  0  0  0  0  0  0  0  0  0
  -27.4090   -4.6570  -31.7430 C   0  0  0  0  0  0  0  0  0  0  0  0
  -28.0200   -4.6410  -30.5080 C   0  0  0  0  0  0  0  0  0  0  0  0
  -28.6290   -5.8130  -30.0560 C   0  0  0  0  0  0  0  0  0  0  0  0
  -28.6250   -6.9690  -30.8270 C   0  0  0  0  0  0  0  0  0  0  0  0
  -28.8130   -8.9650  -31.7640 C   0  0  0  0  0  0  0  0  0  0  0  0
  -29.1360   -8.2320  -30.6310 C   0  0  0  0  0  0  0  0  0  0  0  0
  -28.1420   -3.4780  -29.5050 C   0  0  0  0  0  0  0  0  0  0  0  0
  -27.2980   -3.3830  -28.4160 C   0  0  0  0  0  0  0  0  0  0  0  0
  -29.2350   -2.7000  -29.6150 N   0  0  0  0  0  0  0  0  0  0  0  0
  -27.6140   -2.4580  -27.4400 C   0  0  0  0  0  0  0  0  0  0  0  0
  -29.5620   -1.7860  -28.6670 C   0  0  0  0  0  0  0  0  0  0  0  0
  -28.7380   -1.6650  -27.5650 C   0  0  0  0  0  0  0  0  0  0  0  0
  1  3  1  0
  1  2  2  0
  1  7  1  0
  2  4  1  0
  3  8  1  0
  4  5  2  0
  5  6  1  0
  5 10  1  0
  6  7  2  0
  7  9  1  0
  8  9  2  0
 10 12  1  0
 10 11  2  0
 11 13  1  0
 12 14  2  0
 13 15  2  0
 14 15  1  0
M  END
>  <name>  (88) 
Car Nac Nd0 Car Car Car Car Car Car Car Car Nac Car Car Car

>  <indices>  (88) 
[0, 1, 2]

>  <tasks>  (88) 
probe_placing close_aromatic_ring close_aromatic_ring close_aromatic_ring close_aromatic_ring ring_built build_to_Nd0 close_aromatic_ring no_task close_aromatic_ring close_aromatic_ring close_aromatic_ring close_aromatic_ring

>  <prot_clashes>  (88) 
4

>  <NBS phar>  (88) 
0.21999999999999997

>  <NBS_non-phar>  (88) 
0.6879332860310873

>  <NBS>  (88) 
0.9079332860310872

>  <source_stage>  (88) 
scored

>  <source_iter>  (88) 
12

>  <source_parent_mol>  (88) 
4

>  <source_scenario>  (88) 
1 1 2 0 0 0 0 4 2 0 0 4

>  <source_rank_in_scored_call>  (88) 
0

>  <source_current_task>  (88) 
close_aromatic_ring

>  <scenario>  (88) 
1 1 2 0 0 0 0 4 2 0 0

>  <current_task>  (88) 
no_task

$$$$

     RDKit          3D

 15 17  0  0  0  0  0  0  0  0999 V2000
  -28.0100   -6.9280  -32.0590 C   0  0  0  0  0  0  0  0  0  0  0  0
  -27.4350   -5.7930  -32.4730 N   0  0  0  0  0  0  0  0  0  0  0  0
  -28.1270   -8.1430  -32.6270 N   0  0  0  0  0  0  0  0  0  0  0  0
  -27.4320   -4.6550  -31.7220 C   0  0  0  0  0  0  0  0  0  0  0  0
  -28.0410   -4.6560  -30.4860 C   0  0  0  0  0  0  0  0  0  0  0  0
  -28.6440   -5.8350  -30.0460 C   0  0  0  0  0  0  0  0  0  0  0  0
  -28.6350   -6.9830  -30.8290 C   0  0  0  0  0  0  0  0  0  0  0  0
  -28.8130   -8.9710  -31.7860 C   0  0  0  0  0  0  0  0  0  0  0  0
  -29.1380   -8.2510  -30.6460 C   0  0  0  0  0  0  0  0  0  0  0  0
  -28.2020   -3.5790  -29.4520 C   0  0  0  0  0  0  0  0  0  0  0  0
  -27.3420   -3.4000  -28.3870 C   0  0  0  0  0  0  0  0  0  0  0  0
  -29.2760   -2.7560  -29.6310 N   0  0  0  0  0  0  0  0  0  0  0  0
  -27.6050   -2.3510  -27.5010 C   0  0  0  0  0  0  0  0  0  0  0  0
  -29.5630   -1.7360  -28.8000 C   0  0  0  0  0  0  0  0  0  0  0  0
  -28.7130   -1.5350  -27.7220 C   0  0  0  0  0  0  0  0  0  0  0  0
  1  3  1  0
  1  2  2  0
  1  7  1  0
  2  4  1  0
  3  8  1  0
  4  5  2  0
  5  6  1  0
  5 10  1  0
  6  7  2  0
  7  9  1  0
  8  9  2  0
 10 12  1  0
 10 11  2  0
 11 13  1  0
 12 14  2  0
 13 15  2  0
 14 15  1  0
M  END
>  <name>  (89) 
Car Nac Nd0 Car Car Car Car Car Car Car Car Nac Car Car Car

>  <indices>  (89) 
[0, 1, 2]

>  <tasks>  (89) 
probe_placing close_aromatic_ring close_aromatic_ring close_aromatic_ring close_aromatic_ring ring_built build_to_Nd0 close_aromatic_ring no_task close_aromatic_ring close_aromatic_ring close_aromatic_ring close_aromatic_ring

>  <prot_clashes>  (89) 
4

>  <NBS phar>  (89) 
0.21999999999999997

>  <NBS_non-phar>  (89) 
0.6848518371582031

>  <NBS>  (89) 
0.904851837158203

>  <source_stage>  (89) 
scored

>  <source_iter>  (89) 
12

>  <source_parent_mol>  (89) 
4

>  <source_scenario>  (89) 
1 1 2 0 0 0 0 4 2 0 0 4

>  <source_rank_in_scored_call>  (89) 
1

>  <source_current_task>  (89) 
close_aromatic_ring

>  <scenario>  (89) 
1 1 2 0 0 0 0 4 2 0 0

>  <current_task>  (89) 
no_task

$$$$

     RDKit          3D

 15 17  0  0  0  0  0  0  0  0999 V2000
  -28.0180   -6.9330  -32.0800 C   0  0  0  0  0  0  0  0  0  0  0  0
  -27.4150   -5.8220  -32.5180 N   0  0  0  0  0  0  0  0  0  0  0  0
  -28.1360   -8.1660  -32.6060 N   0  0  0  0  0  0  0  0  0  0  0  0
  -27.4180   -4.6570  -31.8100 C   0  0  0  0  0  0  0  0  0  0  0  0
  -28.0630   -4.6040  -30.5930 C   0  0  0  0  0  0  0  0  0  0  0  0
  -28.6950   -5.7580  -30.1280 C   0  0  0  0  0  0  0  0  0  0  0  0
  -28.6790   -6.9340  -30.8680 C   0  0  0  0  0  0  0  0  0  0  0  0
  -28.8580   -8.9530  -31.7560 C   0  0  0  0  0  0  0  0  0  0  0  0
  -29.2060   -8.1880  -30.6530 C   0  0  0  0  0  0  0  0  0  0  0  0
  -28.2381   -3.4871  -29.6041 C   0  0  0  0  0  0  0  0  0  0  0  0
  -27.4074   -3.2803  -28.5222 C   0  0  0  0  0  0  0  0  0  0  0  0
  -29.2946   -2.6569  -29.8454 N   0  0  0  0  0  0  0  0  0  0  0  0
  -27.6812   -2.1963  -27.6827 C   0  0  0  0  0  0  0  0  0  0  0  0
  -29.5907   -1.6040  -29.0615 C   0  0  0  0  0  0  0  0  0  0  0  0
  -28.7700   -1.3744  -27.9663 C   0  0  0  0  0  0  0  0  0  0  0  0
  1  3  1  0
  1  2  2  0
  1  7  1  0
  2  4  1  0
  3  8  1  0
  4  5  2  0
  5  6  1  0
  5 10  1  0
  6  7  2  0
  7  9  1  0
  8  9  2  0
 10 12  1  0
 10 11  2  0
 11 13  1  0
 12 14  2  0
 13 15  2  0
 14 15  1  0
M  END
>  <name>  (90) 
Car Nac Nd0 Car Car Car Car Car Car Car Car Nac Car Car Car

>  <indices>  (90) 
[0, 1, 2]

>  <tasks>  (90) 
probe_placing close_aromatic_ring close_aromatic_ring close_aromatic_ring close_aromatic_ring ring_built build_to_Nd0 close_aromatic_ring no_task close_aromatic_ring close_aromatic_ring close_aromatic_ring close_aromatic_ring

>  <prot_clashes>  (90) 
4

>  <NBS phar>  (90) 
0.18

>  <NBS_non-phar>  (90) 
0.6305983861287435

>  <NBS>  (90) 
0.8105983861287436

>  <source_stage>  (90) 
scored

>  <source_iter>  (90) 
12

>  <source_parent_mol>  (90) 
4

>  <source_scenario>  (90) 
1 1 2 0 0 0 0 4 2 0 0 4

>  <source_rank_in_scored_call>  (90) 
2

>  <source_current_task>  (90) 
close_aromatic_ring

>  <scenario>  (90) 
1 1 2 0 0 0 0 4 2 0 0

>  <current_task>  (90) 
no_task

$$$$

     RDKit          3D

 15 17  0  0  0  0  0  0  0  0999 V2000
  -28.0180   -6.9330  -32.0800 C   0  0  0  0  0  0  0  0  0  0  0  0
  -27.4150   -5.8220  -32.5180 N   0  0  0  0  0  0  0  0  0  0  0  0
  -28.1360   -8.1660  -32.6060 N   0  0  0  0  0  0  0  0  0  0  0  0
  -27.4180   -4.6570  -31.8100 C   0  0  0  0  0  0  0  0  0  0  0  0
  -28.0630   -4.6040  -30.5930 C   0  0  0  0  0  0  0  0  0  0  0  0
  -28.6950   -5.7580  -30.1280 C   0  0  0  0  0  0  0  0  0  0  0  0
  -28.6790   -6.9340  -30.8680 C   0  0  0  0  0  0  0  0  0  0  0  0
  -28.8580   -8.9530  -31.7560 C   0  0  0  0  0  0  0  0  0  0  0  0
  -29.2060   -8.1880  -30.6530 C   0  0  0  0  0  0  0  0  0  0  0  0
  -28.2032   -3.4134  -29.6257 C   0  0  0  0  0  0  0  0  0  0  0  0
  -27.3888   -3.2955  -28.5164 C   0  0  0  0  0  0  0  0  0  0  0  0
  -29.2860   -2.6298  -29.7873 N   0  0  0  0  0  0  0  0  0  0  0  0
  -27.7235   -2.3429  -27.5742 C   0  0  0  0  0  0  0  0  0  0  0  0
  -29.6312   -1.6884  -28.8730 C   0  0  0  0  0  0  0  0  0  0  0  0
  -28.8378   -1.5445  -27.7516 C   0  0  0  0  0  0  0  0  0  0  0  0
  1  3  1  0
  1  2  2  0
  1  7  1  0
  2  4  1  0
  3  8  1  0
  4  5  2  0
  5  6  1  0
  5 10  1  0
  6  7  2  0
  7  9  1  0
  8  9  2  0
 10 12  1  0
 10 11  2  0
 11 13  1  0
 12 14  2  0
 13 15  2  0
 14 15  1  0
M  END
>  <name>  (91) 
Car Nac Nd0 Car Car Car Car Car Car Car Car Nac Car Car Car

>  <indices>  (91) 
[0, 1, 2]

>  <tasks>  (91) 
probe_placing close_aromatic_ring close_aromatic_ring close_aromatic_ring close_aromatic_ring ring_built build_to_Nd0 close_aromatic_ring no_task close_aromatic_ring close_aromatic_ring close_aromatic_ring close_aromatic_ring

>  <prot_clashes>  (91) 
4

>  <NBS phar>  (91) 
0.18

>  <NBS_non-phar>  (91) 
0.6126807530721029

>  <NBS>  (91) 
0.792680753072103

>  <source_stage>  (91) 
scored

>  <source_iter>  (91) 
12

>  <source_parent_mol>  (91) 
4

>  <source_scenario>  (91) 
1 1 2 0 0 0 0 4 2 0 0 4

>  <source_rank_in_scored_call>  (91) 
3

>  <source_current_task>  (91) 
close_aromatic_ring

>  <scenario>  (91) 
1 1 2 0 0 0 0 4 2 0 0

>  <current_task>  (91) 
no_task

$$$$

     RDKit          3D

 16 18  0  0  0  0  0  0  0  0999 V2000
  -28.0310   -6.8200  -32.2030 C   0  0  0  0  0  0  0  0  0  0  0  0
  -27.5220   -5.7930  -32.8930 N   0  0  0  0  0  0  0  0  0  0  0  0
  -28.1450   -8.1310  -32.4850 N   0  0  0  0  0  0  0  0  0  0  0  0
  -27.5080   -4.5190  -32.4090 C   0  0  0  0  0  0  0  0  0  0  0  0
  -28.0340   -4.2600  -31.1610 C   0  0  0  0  0  0  0  0  0  0  0  0
  -28.5670   -5.3260  -30.4340 C   0  0  0  0  0  0  0  0  0  0  0  0
  -28.5710   -6.6170  -30.9490 C   0  0  0  0  0  0  0  0  0  0  0  0
  -28.7460   -8.7680  -31.4370 C   0  0  0  0  0  0  0  0  0  0  0  0
  -29.0190   -7.8230  -30.4600 C   0  0  0  0  0  0  0  0  0  0  0  0
  -28.1330   -3.0260  -30.3880 C   0  0  0  0  0  0  0  0  0  0  0  0
  -27.2190   -2.6540  -29.4860 C   0  0  0  0  0  0  0  0  0  0  0  0
  -29.2860   -2.2350  -30.6570 N   0  0  0  0  0  0  0  0  0  0  0  0
  -27.4300   -1.4310  -28.7940 N   0  0  0  0  0  0  0  0  0  0  0  0
  -28.5730   -0.5730  -29.0090 C   0  0  0  0  0  0  0  0  0  0  0  0
  -29.4840   -1.1240  -30.0310 C   0  0  0  0  0  0  0  0  0  0  0  0
  -28.7653    0.4986  -28.4065 O   0  0  0  0  0  0  0  0  0  0  0  0
  1  2  2  0
  1  3  1  0
  1  7  1  0
  2  4  1  0
  3  8  1  0
  4  5  2  0
  5  6  1  0
  5 10  1  0
  6  7  2  0
  7  9  1  0
  8  9  2  0
 10 12  1  0
 10 11  2  0
 11 13  1  0
 12 15  2  0
 13 14  1  0
 14 15  1  0
 14 16  2  0
M  END
>  <name>  (92) 
Car Nac Nd0 Car Car Car Car Car Car Car Car Nac Nd0 Car Car .=O

>  <indices>  (92) 
[0, 1, 2]

>  <tasks>  (92) 
probe_placing close_aromatic_ring close_aromatic_ring close_aromatic_ring close_aromatic_ring ring_built build_to_Nd0 close_aromatic_ring no_task close_aromatic_ring close_aromatic_ring close_aromatic_ring close_aromatic_ring close_aromatic_ring

>  <prot_clashes>  (92) 
6

>  <NBS phar>  (92) 
0.2

>  <NBS_non-phar>  (92) 
0.511573076248169

>  <NBS>  (92) 
0.7115730762481689

>  <source_stage>  (92) 
scored

>  <source_iter>  (92) 
13

>  <source_parent_mol>  (92) 
0

>  <source_scenario>  (92) 
1 1 2 0 0 0 0 4 2 0 1 0 0

>  <source_rank_in_scored_call>  (92) 
1

>  <source_current_task>  (92) 
fix_Car

>  <scenario>  (92) 
1 1 2 0 0 0 0 4 2 0 1 0

>  <current_task>  (92) 
no_task

$$$$

     RDKit          3D

 16 18  0  0  0  0  0  0  0  0999 V2000
  -28.0400   -6.7880  -32.1760 C   0  0  0  0  0  0  0  0  0  0  0  0
  -27.5170   -5.7830  -32.8860 N   0  0  0  0  0  0  0  0  0  0  0  0
  -28.1790   -8.1020  -32.4340 N   0  0  0  0  0  0  0  0  0  0  0  0
  -27.4780   -4.5010  -32.4250 C   0  0  0  0  0  0  0  0  0  0  0  0
  -27.9920   -4.2110  -31.1790 C   0  0  0  0  0  0  0  0  0  0  0  0
  -28.5390   -5.2540  -30.4300 C   0  0  0  0  0  0  0  0  0  0  0  0
  -28.5690   -6.5540  -30.9220 C   0  0  0  0  0  0  0  0  0  0  0  0
  -28.7850   -8.7100  -31.3710 C   0  0  0  0  0  0  0  0  0  0  0  0
  -29.0350   -7.7430  -30.4100 C   0  0  0  0  0  0  0  0  0  0  0  0
  -28.0650   -2.9620  -30.4270 C   0  0  0  0  0  0  0  0  0  0  0  0
  -27.1390   -2.5900  -29.5370 C   0  0  0  0  0  0  0  0  0  0  0  0
  -29.2050   -2.1550  -30.7040 N   0  0  0  0  0  0  0  0  0  0  0  0
  -27.3240   -1.3520  -28.8660 N   0  0  0  0  0  0  0  0  0  0  0  0
  -28.4530   -0.4780  -29.0890 C   0  0  0  0  0  0  0  0  0  0  0  0
  -29.3800   -1.0300  -30.0960 C   0  0  0  0  0  0  0  0  0  0  0  0
  -28.6230    0.6080  -28.5050 O   0  0  0  0  0  0  0  0  0  0  0  0
  1  2  2  0
  1  3  1  0
  1  7  1  0
  2  4  1  0
  3  8  1  0
  4  5  2  0
  5  6  1  0
  5 10  1  0
  6  7  2  0
  7  9  1  0
  8  9  2  0
 10 12  1  0
 10 11  2  0
 11 13  1  0
 12 15  2  0
 13 14  1  0
 14 15  1  0
 14 16  2  0
M  END
>  <name>  (93) 
Car Nac Nd0 Car Car Car Car Car Car Car Car Nac Nd0 Car Car .=O

>  <indices>  (93) 
[0, 1, 2]

>  <tasks>  (93) 
probe_placing close_aromatic_ring close_aromatic_ring close_aromatic_ring close_aromatic_ring ring_built build_to_Nd0 close_aromatic_ring no_task close_aromatic_ring close_aromatic_ring close_aromatic_ring close_aromatic_ring close_aromatic_ring

>  <prot_clashes>  (93) 
6

>  <NBS phar>  (93) 
0.12

>  <NBS_non-phar>  (93) 
0.4823644459247589

>  <NBS>  (93) 
0.6023644459247589

>  <source_stage>  (93) 
scored

>  <source_iter>  (93) 
13

>  <source_parent_mol>  (93) 
0

>  <source_scenario>  (93) 
1 1 2 0 0 0 0 4 2 0 1 0 0

>  <source_rank_in_scored_call>  (93) 
9

>  <source_current_task>  (93) 
fix_Car

>  <scenario>  (93) 
1 1 2 0 0 0 0 4 2 0 1 0

>  <current_task>  (93) 
no_task

$$$$

     RDKit          3D

 15 17  0  0  0  0  0  0  0  0999 V2000
  -28.0010   -6.9420  -32.0390 C   0  0  0  0  0  0  0  0  0  0  0  0
  -27.4200   -5.8100  -32.4540 N   0  0  0  0  0  0  0  0  0  0  0  0
  -28.1230   -8.1560  -32.6050 N   0  0  0  0  0  0  0  0  0  0  0  0
  -27.4120   -4.6710  -31.7060 C   0  0  0  0  0  0  0  0  0  0  0  0
  -28.0220   -4.6680  -30.4680 C   0  0  0  0  0  0  0  0  0  0  0  0
  -28.6290   -5.8440  -30.0270 C   0  0  0  0  0  0  0  0  0  0  0  0
  -28.6250   -6.9920  -30.8090 C   0  0  0  0  0  0  0  0  0  0  0  0
  -28.8130   -8.9800  -31.7630 C   0  0  0  0  0  0  0  0  0  0  0  0
  -29.1340   -8.2590  -30.6240 C   0  0  0  0  0  0  0  0  0  0  0  0
  -28.1750   -3.5910  -29.4460 C   0  0  0  0  0  0  0  0  0  0  0  0
  -27.3160   -3.4300  -28.3900 C   0  0  0  0  0  0  0  0  0  0  0  0
  -29.2320   -2.7730  -29.6120 N   0  0  0  0  0  0  0  0  0  0  0  0
  -29.4920   -1.7630  -28.7540 C   0  0  0  0  0  0  0  0  0  0  0  0
  -28.6230   -1.6050  -27.6920 C   0  0  0  0  0  0  0  0  0  0  0  0
  -27.5420   -2.4120  -27.4870 C   0  0  0  0  0  0  0  0  0  0  0  0
  1  3  1  0
  1  2  2  0
  1  7  1  0
  2  4  1  0
  3  8  1  0
  4  5  2  0
  5  6  1  0
  5 10  1  0
  6  7  2  0
  7  9  1  0
  8  9  2  0
 10 12  1  0
 10 11  2  0
 11 15  1  0
 12 13  2  0
 13 14  1  0
 14 15  2  0
M  END
>  <name>  (94) 
Car Nac Nd0 Car Car Car Car Car Car Car Car Nac Car Car Car

>  <indices>  (94) 
[0, 1, 2]

>  <tasks>  (94) 
probe_placing close_aromatic_ring close_aromatic_ring close_aromatic_ring close_aromatic_ring ring_built build_to_Nd0 close_aromatic_ring no_task close_aromatic_ring close_aromatic_ring close_aromatic_ring close_aromatic_ring

>  <prot_clashes>  (94) 
4

>  <NBS phar>  (94) 
0.21999999999999997

>  <NBS_non-phar>  (94) 
0.7285024007161458

>  <NBS>  (94) 
0.9485024007161458

>  <source_stage>  (94) 
scored

>  <source_iter>  (94) 
12

>  <source_parent_mol>  (94) 
0

>  <source_scenario>  (94) 
1 1 2 0 0 0 0 4 2 0 3 0

>  <source_rank_in_scored_call>  (94) 
0

>  <source_current_task>  (94) 
close_aromatic_ring

>  <scenario>  (94) 
1 1 2 0 0 0 0 4 2 0 3

>  <current_task>  (94) 
no_task

$$$$

     RDKit          3D

 15 17  0  0  0  0  0  0  0  0999 V2000
  -27.9980   -6.9500  -32.0660 C   0  0  0  0  0  0  0  0  0  0  0  0
  -27.4130   -5.8080  -32.4460 N   0  0  0  0  0  0  0  0  0  0  0  0
  -28.1100   -8.1510  -32.6610 N   0  0  0  0  0  0  0  0  0  0  0  0
  -27.4180   -4.6870  -31.6720 C   0  0  0  0  0  0  0  0  0  0  0  0
  -28.0450   -4.7120  -30.4440 C   0  0  0  0  0  0  0  0  0  0  0  0
  -28.6580   -5.8980  -30.0390 C   0  0  0  0  0  0  0  0  0  0  0  0
  -28.6410   -7.0290  -30.8470 C   0  0  0  0  0  0  0  0  0  0  0  0
  -28.8120   -8.9950  -31.8480 C   0  0  0  0  0  0  0  0  0  0  0  0
  -29.1510   -8.3000  -30.6980 C   0  0  0  0  0  0  0  0  0  0  0  0
  -28.1950   -3.6290  -29.3550 C   0  0  0  0  0  0  0  0  0  0  0  0
  -27.2470   -3.4030  -28.3840 C   0  0  0  0  0  0  0  0  0  0  0  0
  -29.2970   -2.8820  -29.4980 N   0  0  0  0  0  0  0  0  0  0  0  0
  -29.5640   -1.8300  -28.6820 C   0  0  0  0  0  0  0  0  0  0  0  0
  -28.6310   -1.5730  -27.6940 C   0  0  0  0  0  0  0  0  0  0  0  0
  -27.4870   -2.3270  -27.5240 C   0  0  0  0  0  0  0  0  0  0  0  0
  1  3  1  0
  1  2  2  0
  1  7  1  0
  2  4  1  0
  3  8  1  0
  4  5  2  0
  5  6  1  0
  5 10  1  0
  6  7  2  0
  7  9  1  0
  8  9  2  0
 10 12  1  0
 10 11  2  0
 11 15  1  0
 12 13  2  0
 13 14  1  0
 14 15  2  0
M  END
>  <name>  (95) 
Car Nac Nd0 Car Car Car Car Car Car Car Car Nac Car Car Car

>  <indices>  (95) 
[0, 1, 2]

>  <tasks>  (95) 
probe_placing close_aromatic_ring close_aromatic_ring close_aromatic_ring close_aromatic_ring ring_built build_to_Nd0 close_aromatic_ring no_task close_aromatic_ring close_aromatic_ring close_aromatic_ring close_aromatic_ring

>  <prot_clashes>  (95) 
4

>  <NBS phar>  (95) 
0.19999999999999998

>  <NBS_non-phar>  (95) 
0.685011355082194

>  <NBS>  (95) 
0.885011355082194

>  <source_stage>  (95) 
scored

>  <source_iter>  (95) 
12

>  <source_parent_mol>  (95) 
0

>  <source_scenario>  (95) 
1 1 2 0 0 0 0 4 2 0 3 0

>  <source_rank_in_scored_call>  (95) 
1

>  <source_current_task>  (95) 
close_aromatic_ring

>  <scenario>  (95) 
1 1 2 0 0 0 0 4 2 0 3

>  <current_task>  (95) 
no_task

$$$$

     RDKit          3D

 15 17  0  0  0  0  0  0  0  0999 V2000
  -27.9760   -6.9620  -32.0700 C   0  0  0  0  0  0  0  0  0  0  0  0
  -27.3710   -5.8470  -32.4970 N   0  0  0  0  0  0  0  0  0  0  0  0
  -28.0860   -8.1920  -32.6030 N   0  0  0  0  0  0  0  0  0  0  0  0
  -27.3830   -4.6860  -31.7840 C   0  0  0  0  0  0  0  0  0  0  0  0
  -28.0390   -4.6400  -30.5710 C   0  0  0  0  0  0  0  0  0  0  0  0
  -28.6720   -5.7980  -30.1180 C   0  0  0  0  0  0  0  0  0  0  0  0
  -28.6470   -6.9700  -30.8640 C   0  0  0  0  0  0  0  0  0  0  0  0
  -28.8140   -8.9850  -31.7630 C   0  0  0  0  0  0  0  0  0  0  0  0
  -29.1730   -8.2270  -30.6600 C   0  0  0  0  0  0  0  0  0  0  0  0
  -28.2067   -3.5802  -29.6272 C   0  0  0  0  0  0  0  0  0  0  0  0
  -27.4804   -3.4828  -28.4425 C   0  0  0  0  0  0  0  0  0  0  0  0
  -29.1811   -2.6681  -29.8138 N   0  0  0  0  0  0  0  0  0  0  0  0
  -29.4742   -1.6950  -28.9301 C   0  0  0  0  0  0  0  0  0  0  0  0
  -28.7542   -1.6010  -27.7592 C   0  0  0  0  0  0  0  0  0  0  0  0
  -27.7439   -2.5033  -27.5073 C   0  0  0  0  0  0  0  0  0  0  0  0
  1  3  1  0
  1  2  2  0
  1  7  1  0
  2  4  1  0
  3  8  1  0
  4  5  2  0
  5  6  1  0
  5 10  1  0
  6  7  2  0
  7  9  1  0
  8  9  2  0
 10 12  1  0
 10 11  2  0
 12 13  2  0
 13 14  1  0
 11 15  1  0
 14 15  2  0
M  END
>  <name>  (96) 
Car Nac Nd0 Car Car Car Car Car Car Car Car Nac Car Car Car

>  <indices>  (96) 
[0, 1, 2]

>  <tasks>  (96) 
probe_placing close_aromatic_ring close_aromatic_ring close_aromatic_ring close_aromatic_ring ring_built build_to_Nd0 close_aromatic_ring no_task close_aromatic_ring close_aromatic_ring close_aromatic_ring close_aromatic_ring

>  <prot_clashes>  (96) 
4

>  <NBS phar>  (96) 
0.19999999999999998

>  <NBS_non-phar>  (96) 
0.6718500137329102

>  <NBS>  (96) 
0.8718500137329102

>  <source_stage>  (96) 
scored

>  <source_iter>  (96) 
12

>  <source_parent_mol>  (96) 
0

>  <source_scenario>  (96) 
1 1 2 0 0 0 0 4 2 0 3 0

>  <source_rank_in_scored_call>  (96) 
2

>  <source_current_task>  (96) 
close_aromatic_ring

>  <scenario>  (96) 
1 1 2 0 0 0 0 4 2 0 3

>  <current_task>  (96) 
no_task

$$$$

     RDKit          3D

 15 17  0  0  0  0  0  0  0  0999 V2000
  -27.9820   -6.9560  -32.0800 C   0  0  0  0  0  0  0  0  0  0  0  0
  -27.3820   -5.8410  -32.5130 N   0  0  0  0  0  0  0  0  0  0  0  0
  -28.0920   -8.1880  -32.6080 N   0  0  0  0  0  0  0  0  0  0  0  0
  -27.3940   -4.6780  -31.8040 C   0  0  0  0  0  0  0  0  0  0  0  0
  -28.0440   -4.6300  -30.5870 C   0  0  0  0  0  0  0  0  0  0  0  0
  -28.6720   -5.7880  -30.1280 C   0  0  0  0  0  0  0  0  0  0  0  0
  -28.6470   -6.9620  -30.8700 C   0  0  0  0  0  0  0  0  0  0  0  0
  -28.8140   -8.9810  -31.7620 C   0  0  0  0  0  0  0  0  0  0  0  0
  -29.1690   -8.2200  -30.6600 C   0  0  0  0  0  0  0  0  0  0  0  0
  -28.2100   -3.5680  -29.6460 C   0  0  0  0  0  0  0  0  0  0  0  0
  -27.4770   -3.4650  -28.4650 C   0  0  0  0  0  0  0  0  0  0  0  0
  -29.1870   -2.6590  -29.8310 N   0  0  0  0  0  0  0  0  0  0  0  0
  -29.4780   -1.6840  -28.9480 C   0  0  0  0  0  0  0  0  0  0  0  0
  -28.7530   -1.5840  -27.7810 C   0  0  0  0  0  0  0  0  0  0  0  0
  -27.7390   -2.4830  -27.5310 C   0  0  0  0  0  0  0  0  0  0  0  0
  1  3  1  0
  1  2  2  0
  1  7  1  0
  2  4  1  0
  3  8  1  0
  4  5  2  0
  5  6  1  0
  5 10  1  0
  6  7  2  0
  7  9  1  0
  8  9  2  0
 10 12  1  0
 10 11  2  0
 11 15  1  0
 12 13  2  0
 13 14  1  0
 14 15  2  0
M  END
>  <name>  (97) 
Car Nac Nd0 Car Car Car Car Car Car Car Car Nac Car Car Car

>  <indices>  (97) 
[0, 1, 2]

>  <tasks>  (97) 
probe_placing close_aromatic_ring close_aromatic_ring close_aromatic_ring close_aromatic_ring ring_built build_to_Nd0 close_aromatic_ring no_task close_aromatic_ring close_aromatic_ring close_aromatic_ring close_aromatic_ring

>  <prot_clashes>  (97) 
4

>  <NBS phar>  (97) 
0.19999999999999998

>  <NBS_non-phar>  (97) 
0.6707496643066406

>  <NBS>  (97) 
0.8707496643066406

>  <source_stage>  (97) 
scored

>  <source_iter>  (97) 
12

>  <source_parent_mol>  (97) 
0

>  <source_scenario>  (97) 
1 1 2 0 0 0 0 4 2 0 3 0

>  <source_rank_in_scored_call>  (97) 
3

>  <source_current_task>  (97) 
close_aromatic_ring

>  <scenario>  (97) 
1 1 2 0 0 0 0 4 2 0 3

>  <current_task>  (97) 
no_task

$$$$

     RDKit          3D

 15 17  0  0  0  0  0  0  0  0999 V2000
  -27.9760   -6.9620  -32.0700 C   0  0  0  0  0  0  0  0  0  0  0  0
  -27.3710   -5.8470  -32.4970 N   0  0  0  0  0  0  0  0  0  0  0  0
  -28.0860   -8.1920  -32.6030 N   0  0  0  0  0  0  0  0  0  0  0  0
  -27.3830   -4.6860  -31.7840 C   0  0  0  0  0  0  0  0  0  0  0  0
  -28.0390   -4.6400  -30.5710 C   0  0  0  0  0  0  0  0  0  0  0  0
  -28.6720   -5.7980  -30.1180 C   0  0  0  0  0  0  0  0  0  0  0  0
  -28.6470   -6.9700  -30.8640 C   0  0  0  0  0  0  0  0  0  0  0  0
  -28.8140   -8.9850  -31.7630 C   0  0  0  0  0  0  0  0  0  0  0  0
  -29.1730   -8.2270  -30.6600 C   0  0  0  0  0  0  0  0  0  0  0  0
  -28.2232   -3.5314  -29.5896 C   0  0  0  0  0  0  0  0  0  0  0  0
  -27.4038   -3.3431  -28.5074 C   0  0  0  0  0  0  0  0  0  0  0  0
  -29.2656   -2.7118  -29.8209 N   0  0  0  0  0  0  0  0  0  0  0  0
  -29.5512   -1.6738  -29.0047 C   0  0  0  0  0  0  0  0  0  0  0  0
  -28.7219   -1.4888  -27.9155 C   0  0  0  0  0  0  0  0  0  0  0  0
  -27.6557   -2.2958  -27.6449 C   0  0  0  0  0  0  0  0  0  0  0  0
  1  3  1  0
  1  2  2  0
  1  7  1  0
  2  4  1  0
  3  8  1  0
  4  5  2  0
  5  6  1  0
  5 10  1  0
  6  7  2  0
  7  9  1  0
  8  9  2  0
 10 12  1  0
 10 11  2  0
 12 13  2  0
 13 14  1  0
 11 15  1  0
 14 15  2  0
M  END
>  <name>  (98) 
Car Nac Nd0 Car Car Car Car Car Car Car Car Nac Car Car Car

>  <indices>  (98) 
[0, 1, 2]

>  <tasks>  (98) 
probe_placing close_aromatic_ring close_aromatic_ring close_aromatic_ring close_aromatic_ring ring_built build_to_Nd0 close_aromatic_ring no_task close_aromatic_ring close_aromatic_ring close_aromatic_ring close_aromatic_ring

>  <prot_clashes>  (98) 
4

>  <NBS phar>  (98) 
0.21999999999999997

>  <NBS_non-phar>  (98) 
0.6187835693359375

>  <NBS>  (98) 
0.8387835693359375

>  <source_stage>  (98) 
scored

>  <source_iter>  (98) 
12

>  <source_parent_mol>  (98) 
0

>  <source_scenario>  (98) 
1 1 2 0 0 0 0 4 2 0 3 0

>  <source_rank_in_scored_call>  (98) 
4

>  <source_current_task>  (98) 
close_aromatic_ring

>  <scenario>  (98) 
1 1 2 0 0 0 0 4 2 0 3

>  <current_task>  (98) 
no_task

$$$$

     RDKit          3D

 15 17  0  0  0  0  0  0  0  0999 V2000
  -27.9760   -6.9620  -32.0700 C   0  0  0  0  0  0  0  0  0  0  0  0
  -27.3710   -5.8470  -32.4970 N   0  0  0  0  0  0  0  0  0  0  0  0
  -28.0860   -8.1920  -32.6030 N   0  0  0  0  0  0  0  0  0  0  0  0
  -27.3830   -4.6860  -31.7840 C   0  0  0  0  0  0  0  0  0  0  0  0
  -28.0390   -4.6400  -30.5710 C   0  0  0  0  0  0  0  0  0  0  0  0
  -28.6720   -5.7980  -30.1180 C   0  0  0  0  0  0  0  0  0  0  0  0
  -28.6470   -6.9700  -30.8640 C   0  0  0  0  0  0  0  0  0  0  0  0
  -28.8140   -8.9850  -31.7630 C   0  0  0  0  0  0  0  0  0  0  0  0
  -29.1730   -8.2270  -30.6600 C   0  0  0  0  0  0  0  0  0  0  0  0
  -28.2033   -3.4991  -29.5448 C   0  0  0  0  0  0  0  0  0  0  0  0
  -27.2748   -3.2303  -28.5663 C   0  0  0  0  0  0  0  0  0  0  0  0
  -29.2938   -2.7524  -29.7526 N   0  0  0  0  0  0  0  0  0  0  0  0
  -29.5695   -1.6562  -29.0010 C   0  0  0  0  0  0  0  0  0  0  0  0
  -28.6568   -1.3543  -28.0058 C   0  0  0  0  0  0  0  0  0  0  0  0
  -27.5248   -2.1066  -27.7699 C   0  0  0  0  0  0  0  0  0  0  0  0
  1  3  1  0
  1  2  2  0
  1  7  1  0
  2  4  1  0
  3  8  1  0
  4  5  2  0
  5  6  1  0
  5 10  1  0
  6  7  2  0
  7  9  1  0
  8  9  2  0
 10 12  1  0
 10 11  2  0
 12 13  2  0
 13 14  1  0
 14 15  2  0
 11 15  1  0
M  END
>  <name>  (99) 
Car Nac Nd0 Car Car Car Car Car Car Car Car Nac Car Car Car

>  <indices>  (99) 
[0, 1, 2]

>  <tasks>  (99) 
probe_placing close_aromatic_ring close_aromatic_ring close_aromatic_ring close_aromatic_ring ring_built build_to_Nd0 close_aromatic_ring no_task close_aromatic_ring close_aromatic_ring close_aromatic_ring close_aromatic_ring

>  <prot_clashes>  (99) 
4

>  <NBS phar>  (99) 
0.19999999999999998

>  <NBS_non-phar>  (99) 
0.6049073537190756

>  <NBS>  (99) 
0.8049073537190755

>  <source_stage>  (99) 
scored

>  <source_iter>  (99) 
12

>  <source_parent_mol>  (99) 
0

>  <source_scenario>  (99) 
1 1 2 0 0 0 0 4 2 0 3 0

>  <source_rank_in_scored_call>  (99) 
5

>  <source_current_task>  (99) 
close_aromatic_ring

>  <scenario>  (99) 
1 1 2 0 0 0 0 4 2 0 3

>  <current_task>  (99) 
no_task

$$$$

     RDKit          3D

 15 17  0  0  0  0  0  0  0  0999 V2000
  -28.0620   -6.8500  -32.0280 C   0  0  0  0  0  0  0  0  0  0  0  0
  -27.6520   -5.9070  -32.8840 N   0  0  0  0  0  0  0  0  0  0  0  0
  -28.1770   -8.1870  -32.1430 N   0  0  0  0  0  0  0  0  0  0  0  0
  -27.6130   -4.5850  -32.5550 C   0  0  0  0  0  0  0  0  0  0  0  0
  -28.0080   -4.1860  -31.2960 C   0  0  0  0  0  0  0  0  0  0  0  0
  -28.4370   -5.1640  -30.3970 C   0  0  0  0  0  0  0  0  0  0  0  0
  -28.4680   -6.5070  -30.7550 C   0  0  0  0  0  0  0  0  0  0  0  0
  -28.6490   -8.7020  -30.9690 C   0  0  0  0  0  0  0  0  0  0  0  0
  -28.8360   -7.6510  -30.0840 C   0  0  0  0  0  0  0  0  0  0  0  0
  -28.0830   -2.8790  -30.6680 C   0  0  0  0  0  0  0  0  0  0  0  0
  -27.1130   -2.2920  -29.9010 C   0  0  0  0  0  0  0  0  0  0  0  0
  -27.2710   -1.0680  -29.2790 C   0  0  0  0  0  0  0  0  0  0  0  0
  -28.4720   -0.4580  -29.4710 N   0  0  0  0  0  0  0  0  0  0  0  0
  -29.4530   -0.9840  -30.2060 C   0  0  0  0  0  0  0  0  0  0  0  0
  -29.2750   -2.2070  -30.8190 C   0  0  0  0  0  0  0  0  0  0  0  0
  1  2  2  0
  1  3  1  0
  1  7  1  0
  2  4  1  0
  3  8  1  0
  4  5  2  0
  5 10  1  0
  5  6  1  0
  6  7  2  0
  7  9  1  0
  8  9  2  0
 10 15  1  0
 10 11  2  0
 11 12  1  0
 12 13  2  0
 13 14  1  0
 14 15  2  0
M  END
>  <name>  (100) 
Car Nac Nd0 Car Car Car Car Car Car Car Car Car Nac Car Car

>  <indices>  (100) 
[0, 1, 2]

>  <tasks>  (100) 
probe_placing close_aromatic_ring close_aromatic_ring close_aromatic_ring close_aromatic_ring ring_built build_to_Nd0 close_aromatic_ring no_task close_aromatic_ring close_aromatic_ring close_aromatic_ring close_aromatic_ring

>  <prot_clashes>  (100) 
8

>  <NBS phar>  (100) 
0.13999999999999999

>  <NBS_non-phar>  (100) 
0.5348540623982747

>  <NBS>  (100) 
0.6748540623982747

>  <source_stage>  (100) 
scored

>  <source_iter>  (100) 
12

>  <source_parent_mol>  (100) 
0

>  <source_scenario>  (100) 
1 1 2 0 0 0 0 4 2 1 1 0

>  <source_rank_in_scored_call>  (100) 
2

>  <source_current_task>  (100) 
close_aromatic_ring

>  <scenario>  (100) 
1 1 2 0 0 0 0 4 2 1 1

>  <current_task>  (100) 
no_task

$$$$

     RDKit          3D

 16 18  0  0  0  0  0  0  0  0999 V2000
  -28.0650   -6.8200  -32.0510 C   0  0  0  0  0  0  0  0  0  0  0  0
  -27.6870   -5.8360  -32.8740 N   0  0  0  0  0  0  0  0  0  0  0  0
  -28.0670   -8.1600  -32.1850 N   0  0  0  0  0  0  0  0  0  0  0  0
  -27.7720   -4.5200  -32.5300 C   0  0  0  0  0  0  0  0  0  0  0  0
  -28.2640   -4.1710  -31.2900 C   0  0  0  0  0  0  0  0  0  0  0  0
  -28.6600   -5.1930  -30.4250 C   0  0  0  0  0  0  0  0  0  0  0  0
  -28.5650   -6.5290  -30.7990 C   0  0  0  0  0  0  0  0  0  0  0  0
  -28.5580   -8.7270  -31.0440 C   0  0  0  0  0  0  0  0  0  0  0  0
  -28.8750   -7.7080  -30.1590 C   0  0  0  0  0  0  0  0  0  0  0  0
  -28.4440   -2.8920  -30.6380 C   0  0  0  0  0  0  0  0  0  0  0  0
  -27.5600   -2.3000  -29.8560 C   0  0  0  0  0  0  0  0  0  0  0  0
  -27.9500   -1.0430  -29.2450 C   0  0  0  0  0  0  0  0  0  0  0  0
  -29.0910   -0.5140  -29.4390 N   0  0  0  0  0  0  0  0  0  0  0  0
  -30.1440   -1.0450  -30.2610 C   0  0  0  0  0  0  0  0  0  0  0  0
  -29.7010   -2.2840  -30.8360 N   0  0  0  0  0  0  0  0  0  0  0  0
  -31.2570   -0.5190  -30.4440 O   0  0  0  0  0  0  0  0  0  0  0  0
  1  2  2  0
  1  3  1  0
  1  7  1  0
  2  4  1  0
  3  8  1  0
  4  5  2  0
  5 10  1  0
  5  6  1  0
  6  7  2  0
  7  9  1  0
  8  9  2  0
 10 15  1  0
 10 11  2  0
 11 12  1  0
 12 13  2  0
 13 14  1  0
 14 15  1  0
 14 16  2  0
M  END
>  <name>  (101) 
Car Nac Nd0 Car Car Car Car Car Car Car Car Car Nac Car Nd0 .=O

>  <indices>  (101) 
[0, 1, 2]

>  <tasks>  (101) 
probe_placing close_aromatic_ring close_aromatic_ring close_aromatic_ring close_aromatic_ring ring_built build_to_Nd0 close_aromatic_ring no_task close_aromatic_ring close_aromatic_ring close_aromatic_ring close_aromatic_ring close_aromatic_ring

>  <prot_clashes>  (101) 
5

>  <NBS phar>  (101) 
0.32

>  <NBS_non-phar>  (101) 
0.582241415977478

>  <NBS>  (101) 
0.9022414159774781

>  <source_stage>  (101) 
scored

>  <source_iter>  (101) 
13

>  <source_parent_mol>  (101) 
1

>  <source_scenario>  (101) 
1 1 2 0 0 0 0 4 2 1 1 0 1

>  <source_rank_in_scored_call>  (101) 
0

>  <source_current_task>  (101) 
fix_Car

>  <scenario>  (101) 
1 1 2 0 0 0 0 4 2 1 1 0

>  <current_task>  (101) 
no_task

$$$$

     RDKit          3D

 16 18  0  0  0  0  0  0  0  0999 V2000
  -28.1030   -6.9950  -32.0900 C   0  0  0  0  0  0  0  0  0  0  0  0
  -27.6240   -6.0360  -32.8900 N   0  0  0  0  0  0  0  0  0  0  0  0
  -28.2160   -8.3280  -32.2440 N   0  0  0  0  0  0  0  0  0  0  0  0
  -27.6040   -4.7220  -32.5280 C   0  0  0  0  0  0  0  0  0  0  0  0
  -28.0920   -4.3490  -31.2940 C   0  0  0  0  0  0  0  0  0  0  0  0
  -28.5930   -5.3440  -30.4530 C   0  0  0  0  0  0  0  0  0  0  0  0
  -28.6040   -6.6780  -30.8440 C   0  0  0  0  0  0  0  0  0  0  0  0
  -28.7790   -8.8660  -31.1220 C   0  0  0  0  0  0  0  0  0  0  0  0
  -29.0280   -7.8350  -30.2290 C   0  0  0  0  0  0  0  0  0  0  0  0
  -28.1775   -3.0671  -30.6271 C   0  0  0  0  0  0  0  0  0  0  0  0
  -27.2644   -2.5635  -29.8181 C   0  0  0  0  0  0  0  0  0  0  0  0
  -27.5592   -1.2864  -29.1965 C   0  0  0  0  0  0  0  0  0  0  0  0
  -28.6465   -0.6576  -29.4065 N   0  0  0  0  0  0  0  0  0  0  0  0
  -29.7219   -1.0872  -30.2589 C   0  0  0  0  0  0  0  0  0  0  0  0
  -29.3728   -2.3517  -30.8431 N   0  0  0  0  0  0  0  0  0  0  0  0
  -30.7812   -0.4653  -30.4577 O   0  0  0  0  0  0  0  0  0  0  0  0
  1  2  2  0
  1  3  1  0
  1  7  1  0
  2  4  1  0
  3  8  1  0
  4  5  2  0
  5 10  1  0
  5  6  1  0
  6  7  2  0
  7  9  1  0
  8  9  2  0
 10 11  2  0
 11 12  1  0
 12 13  2  0
 13 14  1  0
 10 15  1  0
 14 15  1  0
 14 16  2  0
M  END
>  <name>  (102) 
Car Nac Nd0 Car Car Car Car Car Car Car Car Car Nac Car Nd0 .=O

>  <indices>  (102) 
[0, 1, 2]

>  <tasks>  (102) 
probe_placing close_aromatic_ring close_aromatic_ring close_aromatic_ring close_aromatic_ring ring_built build_to_Nd0 close_aromatic_ring no_task close_aromatic_ring close_aromatic_ring close_aromatic_ring close_aromatic_ring close_aromatic_ring

>  <prot_clashes>  (102) 
7

>  <NBS phar>  (102) 
0.25999999999999995

>  <NBS_non-phar>  (102) 
0.6326332688331604

>  <NBS>  (102) 
0.8926332688331604

>  <source_stage>  (102) 
scored

>  <source_iter>  (102) 
13

>  <source_parent_mol>  (102) 
1

>  <source_scenario>  (102) 
1 1 2 0 0 0 0 4 2 1 1 0 1

>  <source_rank_in_scored_call>  (102) 
1

>  <source_current_task>  (102) 
fix_Car

>  <scenario>  (102) 
1 1 2 0 0 0 0 4 2 1 1 0

>  <current_task>  (102) 
no_task

$$$$

     RDKit          3D

 16 18  0  0  0  0  0  0  0  0999 V2000
  -27.9110   -6.5310  -32.1780 C   0  0  0  0  0  0  0  0  0  0  0  0
  -27.3370   -5.5120  -32.8270 N   0  0  0  0  0  0  0  0  0  0  0  0
  -28.0360   -7.8380  -32.4750 N   0  0  0  0  0  0  0  0  0  0  0  0
  -27.3260   -4.2420  -32.3340 C   0  0  0  0  0  0  0  0  0  0  0  0
  -27.9230   -3.9780  -31.1200 C   0  0  0  0  0  0  0  0  0  0  0  0
  -28.5230   -5.0360  -30.4350 C   0  0  0  0  0  0  0  0  0  0  0  0
  -28.5230   -6.3240  -30.9590 C   0  0  0  0  0  0  0  0  0  0  0  0
  -28.7150   -8.4670  -31.4710 C   0  0  0  0  0  0  0  0  0  0  0  0
  -29.0280   -7.5220  -30.5060 C   0  0  0  0  0  0  0  0  0  0  0  0
  -28.1000   -2.6750  -30.3410 C   0  0  0  0  0  0  0  0  0  0  0  0
  -27.2480   -2.3340  -29.3940 C   0  0  0  0  0  0  0  0  0  0  0  0
  -27.3700   -1.1430  -28.5330 C   0  0  0  0  0  0  0  0  0  0  0  0
  -28.5580   -0.4130  -28.8850 N   0  0  0  0  0  0  0  0  0  0  0  0
  -29.4710   -0.7790  -29.9010 C   0  0  0  0  0  0  0  0  0  0  0  0
  -29.2770   -1.8670  -30.6220 C   0  0  0  0  0  0  0  0  0  0  0  0
  -26.5680   -0.8190  -27.6380 O   0  0  0  0  0  0  0  0  0  0  0  0
  1  2  2  0
  1  3  1  0
  1  7  1  0
  2  4  1  0
  3  8  1  0
  4  5  2  0
  5  6  1  0
  5 10  1  0
  6  7  2  0
  7  9  1  0
  8  9  2  0
 10 15  1  0
 10 11  2  0
 11 12  1  0
 12 13  1  0
 12 16  2  0
 13 14  1  0
 14 15  2  0
M  END
>  <name>  (103) 
Car Nac Nd0 Car Car Car Car Car Car Car Car Car Nd0 Car Car .=O

>  <indices>  (103) 
[0, 1, 2]

>  <tasks>  (103) 
probe_placing close_aromatic_ring close_aromatic_ring close_aromatic_ring close_aromatic_ring ring_built build_to_Nd0 close_aromatic_ring no_task close_aromatic_ring close_aromatic_ring close_aromatic_ring close_aromatic_ring close_aromatic_ring

>  <prot_clashes>  (103) 
6

>  <NBS phar>  (103) 
0.24

>  <NBS_non-phar>  (103) 
0.6000573039054871

>  <NBS>  (103) 
0.840057303905487

>  <source_stage>  (103) 
scored

>  <source_iter>  (103) 
13

>  <source_parent_mol>  (103) 
0

>  <source_scenario>  (103) 
1 1 2 0 0 0 0 4 2 1 2 0 0

>  <source_rank_in_scored_call>  (103) 
0

>  <source_current_task>  (103) 
fix_Car

>  <scenario>  (103) 
1 1 2 0 0 0 0 4 2 1 2 0

>  <current_task>  (103) 
no_task

$$$$

     RDKit          3D

 16 18  0  0  0  0  0  0  0  0999 V2000
  -28.1190   -7.0270  -32.1130 C   0  0  0  0  0  0  0  0  0  0  0  0
  -27.6430   -6.0490  -32.8910 N   0  0  0  0  0  0  0  0  0  0  0  0
  -28.1780   -8.3620  -32.2730 N   0  0  0  0  0  0  0  0  0  0  0  0
  -27.6850   -4.7360  -32.5260 C   0  0  0  0  0  0  0  0  0  0  0  0
  -28.2340   -4.3850  -31.3120 C   0  0  0  0  0  0  0  0  0  0  0  0
  -28.7320   -5.4000  -30.4930 C   0  0  0  0  0  0  0  0  0  0  0  0
  -28.6800   -6.7320  -30.8870 C   0  0  0  0  0  0  0  0  0  0  0  0
  -28.7650   -8.9240  -31.1750 C   0  0  0  0  0  0  0  0  0  0  0  0
  -29.0860   -7.9050  -30.2910 C   0  0  0  0  0  0  0  0  0  0  0  0
  -28.4505   -3.0216  -30.6558 C   0  0  0  0  0  0  0  0  0  0  0  0
  -27.5750   -2.5391  -29.7975 C   0  0  0  0  0  0  0  0  0  0  0  0
  -27.7255   -1.2750  -29.0509 C   0  0  0  0  0  0  0  0  0  0  0  0
  -28.9727   -0.6533  -29.4048 N   0  0  0  0  0  0  0  0  0  0  0  0
  -29.9124   -1.1709  -30.3259 C   0  0  0  0  0  0  0  0  0  0  0  0
  -29.6889   -2.3142  -30.9474 C   0  0  0  0  0  0  0  0  0  0  0  0
  -26.9000   -0.8176  -28.2399 O   0  0  0  0  0  0  0  0  0  0  0  0
  1  2  2  0
  1  3  1  0
  1  7  1  0
  2  4  1  0
  3  8  1  0
  4  5  2  0
  5 10  1  0
  5  6  1  0
  6  7  2  0
  7  9  1  0
  8  9  2  0
 10 11  2  0
 11 12  1  0
 12 13  1  0
 13 14  1  0
 10 15  1  0
 14 15  2  0
 12 16  2  0
M  END
>  <name>  (104) 
Car Nac Nd0 Car Car Car Car Car Car Car Car Car Nd0 Car Car .=O

>  <indices>  (104) 
[0, 1, 2]

>  <tasks>  (104) 
probe_placing close_aromatic_ring close_aromatic_ring close_aromatic_ring close_aromatic_ring ring_built build_to_Nd0 close_aromatic_ring no_task close_aromatic_ring close_aromatic_ring close_aromatic_ring close_aromatic_ring close_aromatic_ring

>  <prot_clashes>  (104) 
8

>  <NBS phar>  (104) 
0.24

>  <NBS_non-phar>  (104) 
0.5763410925865173

>  <NBS>  (104) 
0.8163410925865173

>  <source_stage>  (104) 
scored

>  <source_iter>  (104) 
13

>  <source_parent_mol>  (104) 
0

>  <source_scenario>  (104) 
1 1 2 0 0 0 0 4 2 1 2 0 0

>  <source_rank_in_scored_call>  (104) 
1

>  <source_current_task>  (104) 
fix_Car

>  <scenario>  (104) 
1 1 2 0 0 0 0 4 2 1 2 0

>  <current_task>  (104) 
no_task

$$$$

     RDKit          3D

 15 17  0  0  0  0  0  0  0  0999 V2000
  -28.0310   -6.9240  -31.9970 C   0  0  0  0  0  0  0  0  0  0  0  0
  -27.6890   -5.9680  -32.8680 N   0  0  0  0  0  0  0  0  0  0  0  0
  -28.1290   -8.2610  -32.1140 N   0  0  0  0  0  0  0  0  0  0  0  0
  -27.6560   -4.6470  -32.5320 C   0  0  0  0  0  0  0  0  0  0  0  0
  -27.9830   -4.2640  -31.2490 C   0  0  0  0  0  0  0  0  0  0  0  0
  -28.3410   -5.2550  -30.3330 C   0  0  0  0  0  0  0  0  0  0  0  0
  -28.3690   -6.5960  -30.7000 C   0  0  0  0  0  0  0  0  0  0  0  0
  -28.5230   -8.7920  -30.9190 C   0  0  0  0  0  0  0  0  0  0  0  0
  -28.6760   -7.7510  -30.0160 C   0  0  0  0  0  0  0  0  0  0  0  0
  -28.0650   -2.9350  -30.6440 C   0  0  0  0  0  0  0  0  0  0  0  0
  -27.0640   -2.3600  -29.8860 C   0  0  0  0  0  0  0  0  0  0  0  0
  -27.2280   -1.1260  -29.2560 C   0  0  0  0  0  0  0  0  0  0  0  0
  -28.4560   -0.4770  -29.4180 C   0  0  0  0  0  0  0  0  0  0  0  0
  -29.4290   -1.0370  -30.1550 N   0  0  0  0  0  0  0  0  0  0  0  0
  -29.2500   -2.2370  -30.7580 C   0  0  0  0  0  0  0  0  0  0  0  0
  1  2  2  0
  1  3  1  0
  1  7  1  0
  2  4  1  0
  3  8  1  0
  4  5  2  0
  5 10  1  0
  5  6  1  0
  6  7  2  0
  7  9  1  0
  8  9  2  0
 10 15  1  0
 10 11  2  0
 11 12  1  0
 12 13  2  0
 13 14  1  0
 14 15  2  0
M  END
>  <name>  (105) 
Car Nac Nd0 Car Car Car Car Car Car Car Car Car Car Nac Car

>  <indices>  (105) 
[0, 1, 2]

>  <tasks>  (105) 
probe_placing close_aromatic_ring close_aromatic_ring close_aromatic_ring close_aromatic_ring ring_built build_to_Nd0 close_aromatic_ring no_task close_aromatic_ring close_aromatic_ring close_aromatic_ring close_aromatic_ring

>  <prot_clashes>  (105) 
8

>  <NBS phar>  (105) 
0.13999999999999999

>  <NBS_non-phar>  (105) 
0.5974922180175781

>  <NBS>  (105) 
0.7374922180175781

>  <source_stage>  (105) 
scored

>  <source_iter>  (105) 
12

>  <source_parent_mol>  (105) 
1

>  <source_scenario>  (105) 
1 1 2 0 0 0 0 4 2 1 3 1

>  <source_rank_in_scored_call>  (105) 
1

>  <source_current_task>  (105) 
close_aromatic_ring

>  <scenario>  (105) 
1 1 2 0 0 0 0 4 2 1 3

>  <current_task>  (105) 
no_task

$$$$

     RDKit          3D

 15 17  0  0  0  0  0  0  0  0999 V2000
  -28.0500   -6.9970  -32.0590 C   0  0  0  0  0  0  0  0  0  0  0  0
  -27.6370   -6.0320  -32.8880 N   0  0  0  0  0  0  0  0  0  0  0  0
  -28.1430   -8.3320  -32.2000 N   0  0  0  0  0  0  0  0  0  0  0  0
  -27.6270   -4.7160  -32.5340 C   0  0  0  0  0  0  0  0  0  0  0  0
  -28.0540   -4.3470  -31.2760 C   0  0  0  0  0  0  0  0  0  0  0  0
  -28.4860   -5.3480  -30.4040 C   0  0  0  0  0  0  0  0  0  0  0  0
  -28.4890   -6.6830  -30.7880 C   0  0  0  0  0  0  0  0  0  0  0  0
  -28.6310   -8.8760  -31.0460 C   0  0  0  0  0  0  0  0  0  0  0  0
  -28.8520   -7.8460  -30.1460 C   0  0  0  0  0  0  0  0  0  0  0  0
  -28.2462   -3.0143  -30.6584 C   0  0  0  0  0  0  0  0  0  0  0  0
  -27.2708   -2.4455  -29.8316 C   0  0  0  0  0  0  0  0  0  0  0  0
  -27.4690   -1.2275  -29.2110 C   0  0  0  0  0  0  0  0  0  0  0  0
  -28.6766   -0.5736  -29.4315 C   0  0  0  0  0  0  0  0  0  0  0  0
  -29.6222   -1.1558  -30.2512 C   0  0  0  0  0  0  0  0  0  0  0  0
  -29.4090   -2.3355  -30.8416 N   0  0  0  0  0  0  0  0  0  0  0  0
  1  2  2  0
  1  3  1  0
  1  7  1  0
  2  4  1  0
  3  8  1  0
  4  5  2  0
  5 10  1  0
  5  6  1  0
  6  7  2  0
  7  9  1  0
  8  9  2  0
 10 11  2  0
 11 12  1  0
 12 13  2  0
 13 14  1  0
 14 15  2  0
 10 15  1  0
M  END
>  <name>  (106) 
Car Nac Nd0 Car Car Car Car Car Car Car Car Car Car Car Nac

>  <indices>  (106) 
[0, 1, 2]

>  <tasks>  (106) 
probe_placing close_aromatic_ring close_aromatic_ring close_aromatic_ring close_aromatic_ring ring_built build_to_Nd0 close_aromatic_ring no_task close_aromatic_ring close_aromatic_ring close_aromatic_ring close_aromatic_ring

>  <prot_clashes>  (106) 
4

>  <NBS phar>  (106) 
0.27999999999999997

>  <NBS_non-phar>  (106) 
0.655763308207194

>  <NBS>  (106) 
0.9357633082071939

>  <source_stage>  (106) 
scored

>  <source_iter>  (106) 
12

>  <source_parent_mol>  (106) 
2

>  <source_scenario>  (106) 
1 1 2 0 0 0 0 4 2 1 3 2

>  <source_rank_in_scored_call>  (106) 
0

>  <source_current_task>  (106) 
close_aromatic_ring

>  <scenario>  (106) 
1 1 2 0 0 0 0 4 2 1 3

>  <current_task>  (106) 
no_task

$$$$

     RDKit          3D

 15 17  0  0  0  0  0  0  0  0999 V2000
  -28.0570   -6.9710  -32.0300 C   0  0  0  0  0  0  0  0  0  0  0  0
  -27.6530   -6.0260  -32.8860 N   0  0  0  0  0  0  0  0  0  0  0  0
  -28.1760   -8.3060  -32.1470 N   0  0  0  0  0  0  0  0  0  0  0  0
  -27.6120   -4.7050  -32.5540 C   0  0  0  0  0  0  0  0  0  0  0  0
  -27.9960   -4.3100  -31.2900 C   0  0  0  0  0  0  0  0  0  0  0  0
  -28.4180   -5.2900  -30.3900 C   0  0  0  0  0  0  0  0  0  0  0  0
  -28.4540   -6.6300  -30.7520 C   0  0  0  0  0  0  0  0  0  0  0  0
  -28.6380   -8.8240  -30.9710 C   0  0  0  0  0  0  0  0  0  0  0  0
  -28.8170   -7.7770  -30.0820 C   0  0  0  0  0  0  0  0  0  0  0  0
  -28.1480   -2.9640  -30.6880 C   0  0  0  0  0  0  0  0  0  0  0  0
  -27.1410   -2.4000  -29.9000 C   0  0  0  0  0  0  0  0  0  0  0  0
  -27.3010   -1.1690  -29.2930 C   0  0  0  0  0  0  0  0  0  0  0  0
  -28.5040   -0.4990  -29.4880 C   0  0  0  0  0  0  0  0  0  0  0  0
  -29.4820   -1.0780  -30.2710 C   0  0  0  0  0  0  0  0  0  0  0  0
  -29.3050   -2.2700  -30.8490 N   0  0  0  0  0  0  0  0  0  0  0  0
  1  2  2  0
  1  3  1  0
  1  7  1  0
  2  4  1  0
  3  8  1  0
  4  5  2  0
  5 10  1  0
  5  6  1  0
  6  7  2  0
  7  9  1  0
  8  9  2  0
 10 15  1  0
 10 11  2  0
 11 12  1  0
 12 13  2  0
 13 14  1  0
 14 15  2  0
M  END
>  <name>  (107) 
Car Nac Nd0 Car Car Car Car Car Car Car Car Car Car Car Nac

>  <indices>  (107) 
[0, 1, 2]

>  <tasks>  (107) 
probe_placing close_aromatic_ring close_aromatic_ring close_aromatic_ring close_aromatic_ring ring_built build_to_Nd0 close_aromatic_ring no_task close_aromatic_ring close_aromatic_ring close_aromatic_ring close_aromatic_ring

>  <prot_clashes>  (107) 
4

>  <NBS phar>  (107) 
0.15999999999999998

>  <NBS_non-phar>  (107) 
0.6103645960489908

>  <NBS>  (107) 
0.7703645960489909

>  <source_stage>  (107) 
scored

>  <source_iter>  (107) 
12

>  <source_parent_mol>  (107) 
2

>  <source_scenario>  (107) 
1 1 2 0 0 0 0 4 2 1 3 2

>  <source_rank_in_scored_call>  (107) 
4

>  <source_current_task>  (107) 
close_aromatic_ring

>  <scenario>  (107) 
1 1 2 0 0 0 0 4 2 1 3

>  <current_task>  (107) 
no_task

$$$$

     RDKit          3D

 16 18  0  0  0  0  0  0  0  0999 V2000
  -28.0500   -6.9970  -32.0590 C   0  0  0  0  0  0  0  0  0  0  0  0
  -27.6370   -6.0320  -32.8880 N   0  0  0  0  0  0  0  0  0  0  0  0
  -28.1430   -8.3320  -32.2000 N   0  0  0  0  0  0  0  0  0  0  0  0
  -27.6270   -4.7160  -32.5340 C   0  0  0  0  0  0  0  0  0  0  0  0
  -28.0540   -4.3470  -31.2760 C   0  0  0  0  0  0  0  0  0  0  0  0
  -28.4860   -5.3480  -30.4040 C   0  0  0  0  0  0  0  0  0  0  0  0
  -28.4890   -6.6830  -30.7880 C   0  0  0  0  0  0  0  0  0  0  0  0
  -28.6310   -8.8760  -31.0460 C   0  0  0  0  0  0  0  0  0  0  0  0
  -28.8520   -7.8460  -30.1460 C   0  0  0  0  0  0  0  0  0  0  0  0
  -28.1266   -3.0675  -30.6256 C   0  0  0  0  0  0  0  0  0  0  0  0
  -27.2239   -2.4929  -29.8358 C   0  0  0  0  0  0  0  0  0  0  0  0
  -27.4842   -1.2006  -29.2047 C   0  0  0  0  0  0  0  0  0  0  0  0
  -28.6333   -0.6014  -29.4263 C   0  0  0  0  0  0  0  0  0  0  0  0
  -29.7082   -1.1511  -30.2875 C   0  0  0  0  0  0  0  0  0  0  0  0
  -29.3585   -2.4204  -30.8604 N   0  0  0  0  0  0  0  0  0  0  0  0
  -30.7928   -0.5761  -30.4910 O   0  0  0  0  0  0  0  0  0  0  0  0
  1  2  2  0
  1  3  1  0
  1  7  1  0
  2  4  1  0
  3  8  1  0
  4  5  2  0
  5 10  1  0
  5  6  1  0
  6  7  2  0
  7  9  1  0
  8  9  2  0
 10 11  2  0
 11 12  1  0
 12 13  2  0
 13 14  1  0
 10 15  1  0
 14 15  1  0
 14 16  2  0
M  END
>  <name>  (108) 
Car Nac Nd0 Car Car Car Car Car Car Car Car Car Car Car Nd0 .=O

>  <indices>  (108) 
[0, 1, 2]

>  <tasks>  (108) 
probe_placing close_aromatic_ring close_aromatic_ring close_aromatic_ring close_aromatic_ring ring_built build_to_Nd0 close_aromatic_ring no_task close_aromatic_ring close_aromatic_ring close_aromatic_ring close_aromatic_ring close_aromatic_ring

>  <prot_clashes>  (108) 
7

>  <NBS phar>  (108) 
0.25999999999999995

>  <NBS_non-phar>  (108) 
0.6724382638931274

>  <NBS>  (108) 
0.9324382638931275

>  <source_stage>  (108) 
scored

>  <source_iter>  (108) 
13

>  <source_parent_mol>  (108) 
0

>  <source_scenario>  (108) 
1 1 2 0 0 0 0 4 2 1 3 2 0

>  <source_rank_in_scored_call>  (108) 
0

>  <source_current_task>  (108) 
fix_Car

>  <scenario>  (108) 
1 1 2 0 0 0 0 4 2 1 3 2

>  <current_task>  (108) 
no_task

$$$$

     RDKit          3D

 16 18  0  0  0  0  0  0  0  0999 V2000
  -28.0800   -6.8020  -32.0530 C   0  0  0  0  0  0  0  0  0  0  0  0
  -27.6680   -5.8060  -32.8460 N   0  0  0  0  0  0  0  0  0  0  0  0
  -28.0570   -8.1400  -32.1950 N   0  0  0  0  0  0  0  0  0  0  0  0
  -27.7920   -4.4940  -32.4990 C   0  0  0  0  0  0  0  0  0  0  0  0
  -28.3600   -4.1610  -31.2880 C   0  0  0  0  0  0  0  0  0  0  0  0
  -28.7920   -5.1940  -30.4540 C   0  0  0  0  0  0  0  0  0  0  0  0
  -28.6570   -6.5250  -30.8290 C   0  0  0  0  0  0  0  0  0  0  0  0
  -28.6060   -8.7220  -31.0880 C   0  0  0  0  0  0  0  0  0  0  0  0
  -28.9870   -7.7140  -30.2170 C   0  0  0  0  0  0  0  0  0  0  0  0
  -28.5910   -2.8920  -30.6540 C   0  0  0  0  0  0  0  0  0  0  0  0
  -27.8110   -2.2520  -29.7870 C   0  0  0  0  0  0  0  0  0  0  0  0
  -28.2260   -0.9850  -29.1900 C   0  0  0  0  0  0  0  0  0  0  0  0
  -29.3930   -0.4750  -29.5190 C   0  0  0  0  0  0  0  0  0  0  0  0
  -30.3390   -1.1040  -30.4730 C   0  0  0  0  0  0  0  0  0  0  0  0
  -29.8410   -2.3410  -31.0040 N   0  0  0  0  0  0  0  0  0  0  0  0
  -31.4410   -0.6140  -30.7780 O   0  0  0  0  0  0  0  0  0  0  0  0
  1  2  2  0
  1  3  1  0
  1  7  1  0
  2  4  1  0
  3  8  1  0
  4  5  2  0
  5 10  1  0
  5  6  1  0
  6  7  2  0
  7  9  1  0
  8  9  2  0
 10 15  1  0
 10 11  2  0
 11 12  1  0
 12 13  2  0
 13 14  1  0
 14 15  1  0
 14 16  2  0
M  END
>  <name>  (109) 
Car Nac Nd0 Car Car Car Car Car Car Car Car Car Car Car Nd0 .=O

>  <indices>  (109) 
[0, 1, 2]

>  <tasks>  (109) 
probe_placing close_aromatic_ring close_aromatic_ring close_aromatic_ring close_aromatic_ring ring_built build_to_Nd0 close_aromatic_ring no_task close_aromatic_ring close_aromatic_ring close_aromatic_ring close_aromatic_ring close_aromatic_ring

>  <prot_clashes>  (109) 
5

>  <NBS phar>  (109) 
0.2

>  <NBS_non-phar>  (109) 
0.5525055527687073

>  <NBS>  (109) 
0.7525055527687072

>  <source_stage>  (109) 
scored

>  <source_iter>  (109) 
13

>  <source_parent_mol>  (109) 
0

>  <source_scenario>  (109) 
1 1 2 0 0 0 0 4 2 1 3 2 0

>  <source_rank_in_scored_call>  (109) 
4

>  <source_current_task>  (109) 
fix_Car

>  <scenario>  (109) 
1 1 2 0 0 0 0 4 2 1 3 2

>  <current_task>  (109) 
no_task

$$$$

     RDKit          3D

 15 17  0  0  0  0  0  0  0  0999 V2000
  -28.0000   -7.1070  -31.9170 C   0  0  0  0  0  0  0  0  0  0  0  0
  -27.4360   -6.0980  -32.5900 N   0  0  0  0  0  0  0  0  0  0  0  0
  -28.0410   -8.4330  -32.1430 N   0  0  0  0  0  0  0  0  0  0  0  0
  -27.5180   -4.8020  -32.1750 C   0  0  0  0  0  0  0  0  0  0  0  0
  -28.2050   -4.5020  -31.0180 C   0  0  0  0  0  0  0  0  0  0  0  0
  -28.7960   -5.5490  -30.3080 C   0  0  0  0  0  0  0  0  0  0  0  0
  -28.6990   -6.8630  -30.7530 C   0  0  0  0  0  0  0  0  0  0  0  0
  -28.7520   -9.0390  -31.1470 C   0  0  0  0  0  0  0  0  0  0  0  0
  -29.1720   -8.0590  -30.2610 C   0  0  0  0  0  0  0  0  0  0  0  0
  -28.3732   -3.1141  -30.4336 C   0  0  0  0  0  0  0  0  0  0  0  0
  -27.6540   -2.7471  -29.3100 C   0  0  0  0  0  0  0  0  0  0  0  0
  -28.0261   -1.6004  -28.7080 N   0  0  0  0  0  0  0  0  0  0  0  0
  -29.0561   -0.8402  -29.1785 C   0  0  0  0  0  0  0  0  0  0  0  0
  -29.7744   -1.2074  -30.3013 C   0  0  0  0  0  0  0  0  0  0  0  0
  -29.4189   -2.3692  -30.9352 C   0  0  0  0  0  0  0  0  0  0  0  0
  1  2  2  0
  1  3  1  0
  1  7  1  0
  2  4  1  0
  3  8  1  0
  4  5  2  0
  5 10  1  0
  5  6  1  0
  6  7  2  0
  7  9  1  0
  8  9  2  0
 10 11  2  0
 11 12  1  0
 12 13  2  0
 13 14  1  0
 10 15  1  0
 14 15  2  0
M  END
>  <name>  (110) 
Car Nac Nd0 Car Car Car Car Car Car Car Car Nac Car Car Car

>  <indices>  (110) 
[0, 1, 2]

>  <tasks>  (110) 
probe_placing close_aromatic_ring close_aromatic_ring close_aromatic_ring close_aromatic_ring ring_built build_to_Nd0 close_aromatic_ring no_task close_aromatic_ring close_aromatic_ring close_aromatic_ring close_aromatic_ring

>  <prot_clashes>  (110) 
8

>  <NBS phar>  (110) 
0.13999999999999999

>  <NBS_non-phar>  (110) 
0.579391352335612

>  <NBS>  (110) 
0.719391352335612

>  <source_stage>  (110) 
scored

>  <source_iter>  (110) 
12

>  <source_parent_mol>  (110) 
1

>  <source_scenario>  (110) 
1 1 2 0 0 0 0 4 2 3 0 1

>  <source_rank_in_scored_call>  (110) 
1

>  <source_current_task>  (110) 
close_aromatic_ring

>  <scenario>  (110) 
1 1 2 0 0 0 0 4 2 3 0

>  <current_task>  (110) 
no_task

$$$$

     RDKit          3D

 15 17  0  0  0  0  0  0  0  0999 V2000
  -27.9520   -6.7940  -31.8940 C   0  0  0  0  0  0  0  0  0  0  0  0
  -27.3310   -5.7950  -32.5300 N   0  0  0  0  0  0  0  0  0  0  0  0
  -28.0640   -8.1070  -32.1650 N   0  0  0  0  0  0  0  0  0  0  0  0
  -27.3440   -4.5120  -32.0710 C   0  0  0  0  0  0  0  0  0  0  0  0
  -28.0190   -4.2140  -30.9060 C   0  0  0  0  0  0  0  0  0  0  0  0
  -28.6700   -5.2510  -30.2350 C   0  0  0  0  0  0  0  0  0  0  0  0
  -28.6420   -6.5520  -30.7240 C   0  0  0  0  0  0  0  0  0  0  0  0
  -28.8120   -8.7070  -31.1930 C   0  0  0  0  0  0  0  0  0  0  0  0
  -29.1820   -7.7370  -30.2750 C   0  0  0  0  0  0  0  0  0  0  0  0
  -28.2420   -2.9700  -30.2010 C   0  0  0  0  0  0  0  0  0  0  0  0
  -27.4100   -2.5420  -29.1590 C   0  0  0  0  0  0  0  0  0  0  0  0
  -27.6610   -1.3490  -28.5650 N   0  0  0  0  0  0  0  0  0  0  0  0
  -28.6800   -0.5400  -28.9250 C   0  0  0  0  0  0  0  0  0  0  0  0
  -29.5010   -0.9820  -29.9660 C   0  0  0  0  0  0  0  0  0  0  0  0
  -29.2950   -2.1790  -30.6030 C   0  0  0  0  0  0  0  0  0  0  0  0
  1  2  2  0
  1  3  1  0
  1  7  1  0
  2  4  1  0
  3  8  1  0
  4  5  2  0
  5  6  1  0
  5 10  1  0
  6  7  2  0
  7  9  1  0
  8  9  2  0
 10 15  1  0
 10 11  2  0
 11 12  1  0
 12 13  2  0
 13 14  1  0
 14 15  2  0
M  END
>  <name>  (111) 
Car Nac Nd0 Car Car Car Car Car Car Car Car Nac Car Car Car

>  <indices>  (111) 
[0, 1, 2]

>  <tasks>  (111) 
probe_placing close_aromatic_ring close_aromatic_ring close_aromatic_ring close_aromatic_ring ring_built build_to_Nd0 close_aromatic_ring no_task close_aromatic_ring close_aromatic_ring close_aromatic_ring close_aromatic_ring

>  <prot_clashes>  (111) 
7

>  <NBS phar>  (111) 
0.12

>  <NBS_non-phar>  (111) 
0.586598014831543

>  <NBS>  (111) 
0.7065980148315429

>  <source_stage>  (111) 
scored

>  <source_iter>  (111) 
12

>  <source_parent_mol>  (111) 
1

>  <source_scenario>  (111) 
1 1 2 0 0 0 0 4 2 3 0 1

>  <source_rank_in_scored_call>  (111) 
2

>  <source_current_task>  (111) 
close_aromatic_ring

>  <scenario>  (111) 
1 1 2 0 0 0 0 4 2 3 0

>  <current_task>  (111) 
no_task

$$$$

     RDKit          3D

 15 17  0  0  0  0  0  0  0  0999 V2000
  -27.9650   -6.5800  -32.1010 C   0  0  0  0  0  0  0  0  0  0  0  0
  -27.3300   -5.5220  -32.6170 N   0  0  0  0  0  0  0  0  0  0  0  0
  -28.0760   -7.8570  -32.5120 N   0  0  0  0  0  0  0  0  0  0  0  0
  -27.3480   -4.2940  -32.0260 C   0  0  0  0  0  0  0  0  0  0  0  0
  -28.0440   -4.1180  -30.8490 C   0  0  0  0  0  0  0  0  0  0  0  0
  -28.7090   -5.2170  -30.3020 C   0  0  0  0  0  0  0  0  0  0  0  0
  -28.6760   -6.4590  -30.9250 C   0  0  0  0  0  0  0  0  0  0  0  0
  -28.8430   -8.5520  -31.6210 C   0  0  0  0  0  0  0  0  0  0  0  0
  -29.2270   -7.6820  -30.6130 C   0  0  0  0  0  0  0  0  0  0  0  0
  -28.1470   -2.8170  -30.0780 C   0  0  0  0  0  0  0  0  0  0  0  0
  -27.4350   -2.6530  -28.9030 C   0  0  0  0  0  0  0  0  0  0  0  0
  -27.7560   -1.5810  -28.1520 N   0  0  0  0  0  0  0  0  0  0  0  0
  -28.7300   -0.7040  -28.5260 C   0  0  0  0  0  0  0  0  0  0  0  0
  -29.4410   -0.8680  -29.7010 C   0  0  0  0  0  0  0  0  0  0  0  0
  -29.1380   -1.9490  -30.4860 C   0  0  0  0  0  0  0  0  0  0  0  0
  1  2  2  0
  1  3  1  0
  1  7  1  0
  2  4  1  0
  3  8  1  0
  4  5  2  0
  5  6  1  0
  5 10  1  0
  6  7  2  0
  7  9  1  0
  8  9  2  0
 10 15  1  0
 10 11  2  0
 11 12  1  0
 12 13  2  0
 13 14  1  0
 14 15  2  0
M  END
>  <name>  (112) 
Car Nac Nd0 Car Car Car Car Car Car Car Car Nac Car Car Car

>  <indices>  (112) 
[0, 1, 2]

>  <tasks>  (112) 
probe_placing close_aromatic_ring close_aromatic_ring close_aromatic_ring close_aromatic_ring ring_built build_to_Nd0 close_aromatic_ring no_task close_aromatic_ring close_aromatic_ring close_aromatic_ring close_aromatic_ring

>  <prot_clashes>  (112) 
7

>  <NBS phar>  (112) 
0.12

>  <NBS_non-phar>  (112) 
0.5755603790283204

>  <NBS>  (112) 
0.6955603790283204

>  <source_stage>  (112) 
scored

>  <source_iter>  (112) 
12

>  <source_parent_mol>  (112) 
1

>  <source_scenario>  (112) 
1 1 2 0 0 0 0 4 2 3 0 1

>  <source_rank_in_scored_call>  (112) 
3

>  <source_current_task>  (112) 
close_aromatic_ring

>  <scenario>  (112) 
1 1 2 0 0 0 0 4 2 3 0

>  <current_task>  (112) 
no_task

$$$$

     RDKit          3D

 15 17  0  0  0  0  0  0  0  0999 V2000
  -28.0000   -7.1070  -31.9170 C   0  0  0  0  0  0  0  0  0  0  0  0
  -27.4360   -6.0980  -32.5900 N   0  0  0  0  0  0  0  0  0  0  0  0
  -28.0410   -8.4330  -32.1430 N   0  0  0  0  0  0  0  0  0  0  0  0
  -27.5180   -4.8020  -32.1750 C   0  0  0  0  0  0  0  0  0  0  0  0
  -28.2050   -4.5020  -31.0180 C   0  0  0  0  0  0  0  0  0  0  0  0
  -28.7960   -5.5490  -30.3080 C   0  0  0  0  0  0  0  0  0  0  0  0
  -28.6990   -6.8630  -30.7530 C   0  0  0  0  0  0  0  0  0  0  0  0
  -28.7520   -9.0390  -31.1470 C   0  0  0  0  0  0  0  0  0  0  0  0
  -29.1720   -8.0590  -30.2610 C   0  0  0  0  0  0  0  0  0  0  0  0
  -28.4944   -3.2477  -30.3542 C   0  0  0  0  0  0  0  0  0  0  0  0
  -27.6830   -2.7402  -29.3316 C   0  0  0  0  0  0  0  0  0  0  0  0
  -27.9981   -1.5427  -28.7777 N   0  0  0  0  0  0  0  0  0  0  0  0
  -29.0599   -0.8043  -29.1596 C   0  0  0  0  0  0  0  0  0  0  0  0
  -29.8589   -1.3248  -30.1808 C   0  0  0  0  0  0  0  0  0  0  0  0
  -29.5897   -2.5304  -30.7784 C   0  0  0  0  0  0  0  0  0  0  0  0
  1  2  2  0
  1  3  1  0
  1  7  1  0
  2  4  1  0
  3  8  1  0
  4  5  2  0
  5 10  1  0
  5  6  1  0
  6  7  2  0
  7  9  1  0
  8  9  2  0
 10 11  2  0
 11 12  1  0
 12 13  2  0
 13 14  1  0
 10 15  1  0
 14 15  2  0
M  END
>  <name>  (113) 
Car Nac Nd0 Car Car Car Car Car Car Car Car Nac Car Car Car

>  <indices>  (113) 
[0, 1, 2]

>  <tasks>  (113) 
probe_placing close_aromatic_ring close_aromatic_ring close_aromatic_ring close_aromatic_ring ring_built build_to_Nd0 close_aromatic_ring no_task close_aromatic_ring close_aromatic_ring close_aromatic_ring close_aromatic_ring

>  <prot_clashes>  (113) 
8

>  <NBS phar>  (113) 
0.12

>  <NBS_non-phar>  (113) 
0.5693654378255208

>  <NBS>  (113) 
0.6893654378255208

>  <source_stage>  (113) 
scored

>  <source_iter>  (113) 
12

>  <source_parent_mol>  (113) 
1

>  <source_scenario>  (113) 
1 1 2 0 0 0 0 4 2 3 0 1

>  <source_rank_in_scored_call>  (113) 
4

>  <source_current_task>  (113) 
close_aromatic_ring

>  <scenario>  (113) 
1 1 2 0 0 0 0 4 2 3 0

>  <current_task>  (113) 
no_task

$$$$

     RDKit          3D

 16 18  0  0  0  0  0  0  0  0999 V2000
  -27.9390   -6.8960  -31.8810 C   0  0  0  0  0  0  0  0  0  0  0  0
  -27.3130   -5.8960  -32.5110 N   0  0  0  0  0  0  0  0  0  0  0  0
  -28.0480   -8.2090  -32.1560 N   0  0  0  0  0  0  0  0  0  0  0  0
  -27.3300   -4.6130  -32.0500 C   0  0  0  0  0  0  0  0  0  0  0  0
  -28.0150   -4.3180  -30.8910 C   0  0  0  0  0  0  0  0  0  0  0  0
  -28.6710   -5.3560  -30.2260 C   0  0  0  0  0  0  0  0  0  0  0  0
  -28.6390   -6.6560  -30.7170 C   0  0  0  0  0  0  0  0  0  0  0  0
  -28.8030   -8.8110  -31.1900 C   0  0  0  0  0  0  0  0  0  0  0  0
  -29.1810   -7.8420  -30.2740 C   0  0  0  0  0  0  0  0  0  0  0  0
  -28.1740   -3.0770  -30.1830 C   0  0  0  0  0  0  0  0  0  0  0  0
  -27.4180   -2.6780  -29.1550 C   0  0  0  0  0  0  0  0  0  0  0  0
  -27.6890   -1.4440  -28.5150 N   0  0  0  0  0  0  0  0  0  0  0  0
  -28.6530   -0.6690  -28.8820 C   0  0  0  0  0  0  0  0  0  0  0  0
  -29.5740   -0.9800  -30.0050 C   0  0  0  0  0  0  0  0  0  0  0  0
  -29.2450   -2.2500  -30.6170 N   0  0  0  0  0  0  0  0  0  0  0  0
  -30.5077   -0.2440  -30.3723 O   0  0  0  0  0  0  0  0  0  0  0  0
  1  2  2  0
  1  3  1  0
  1  7  1  0
  2  4  1  0
  3  8  1  0
  4  5  2  0
  5  6  1  0
  5 10  1  0
  6  7  2  0
  7  9  1  0
  8  9  2  0
 10 15  1  0
 10 11  2  0
 11 12  1  0
 12 13  2  0
 13 14  1  0
 14 15  1  0
 14 16  2  0
M  END
>  <name>  (114) 
Car Nac Nd0 Car Car Car Car Car Car Car Car Nac Car Car Nd0 .=O

>  <indices>  (114) 
[0, 1, 2]

>  <tasks>  (114) 
probe_placing close_aromatic_ring close_aromatic_ring close_aromatic_ring close_aromatic_ring ring_built build_to_Nd0 close_aromatic_ring no_task close_aromatic_ring close_aromatic_ring close_aromatic_ring close_aromatic_ring close_aromatic_ring

>  <prot_clashes>  (114) 
7

>  <NBS phar>  (114) 
0.22000000000000003

>  <NBS_non-phar>  (114) 
0.6142016649246216

>  <NBS>  (114) 
0.8342016649246216

>  <source_stage>  (114) 
scored

>  <source_iter>  (114) 
13

>  <source_parent_mol>  (114) 
0

>  <source_scenario>  (114) 
1 1 2 0 0 0 0 4 2 3 0 1 0

>  <source_rank_in_scored_call>  (114) 
0

>  <source_current_task>  (114) 
fix_Car

>  <scenario>  (114) 
1 1 2 0 0 0 0 4 2 3 0 1

>  <current_task>  (114) 
no_task

$$$$

     RDKit          3D

 16 18  0  0  0  0  0  0  0  0999 V2000
  -28.0140   -6.7740  -31.9230 C   0  0  0  0  0  0  0  0  0  0  0  0
  -27.5000   -5.7200  -32.5660 N   0  0  0  0  0  0  0  0  0  0  0  0
  -27.9510   -8.0960  -32.1620 N   0  0  0  0  0  0  0  0  0  0  0  0
  -27.6890   -4.4370  -32.1430 C   0  0  0  0  0  0  0  0  0  0  0  0
  -28.4380   -4.2010  -31.0100 C   0  0  0  0  0  0  0  0  0  0  0  0
  -28.9790   -5.2950  -30.3320 C   0  0  0  0  0  0  0  0  0  0  0  0
  -28.7710   -6.5930  -30.7840 C   0  0  0  0  0  0  0  0  0  0  0  0
  -28.6530   -8.7630  -31.1980 C   0  0  0  0  0  0  0  0  0  0  0  0
  -29.1740   -7.8260  -30.3200 C   0  0  0  0  0  0  0  0  0  0  0  0
  -28.7700   -2.9720  -30.3430 C   0  0  0  0  0  0  0  0  0  0  0  0
  -28.0990   -2.4550  -29.3080 C   0  0  0  0  0  0  0  0  0  0  0  0
  -28.5400   -1.2480  -28.7110 N   0  0  0  0  0  0  0  0  0  0  0  0
  -29.5820   -0.6100  -29.1250 C   0  0  0  0  0  0  0  0  0  0  0  0
  -30.4250   -1.0620  -30.2610 C   0  0  0  0  0  0  0  0  0  0  0  0
  -29.9230   -2.2960  -30.8270 N   0  0  0  0  0  0  0  0  0  0  0  0
  -31.4320   -0.4580  -30.6720 O   0  0  0  0  0  0  0  0  0  0  0  0
  1  2  2  0
  1  3  1  0
  1  7  1  0
  2  4  1  0
  3  8  1  0
  4  5  2  0
  5 10  1  0
  5  6  1  0
  6  7  2  0
  7  9  1  0
  8  9  2  0
 10 15  1  0
 10 11  2  0
 11 12  1  0
 12 13  2  0
 13 14  1  0
 14 15  1  0
 14 16  2  0
M  END
>  <name>  (115) 
Car Nac Nd0 Car Car Car Car Car Car Car Car Nac Car Car Nd0 .=O

>  <indices>  (115) 
[0, 1, 2]

>  <tasks>  (115) 
probe_placing close_aromatic_ring close_aromatic_ring close_aromatic_ring close_aromatic_ring ring_built build_to_Nd0 close_aromatic_ring no_task close_aromatic_ring close_aromatic_ring close_aromatic_ring close_aromatic_ring close_aromatic_ring

>  <prot_clashes>  (115) 
8

>  <NBS phar>  (115) 
0.2

>  <NBS_non-phar>  (115) 
0.5730254054069519

>  <NBS>  (115) 
0.7730254054069519

>  <source_stage>  (115) 
scored

>  <source_iter>  (115) 
13

>  <source_parent_mol>  (115) 
0

>  <source_scenario>  (115) 
1 1 2 0 0 0 0 4 2 3 0 1 0

>  <source_rank_in_scored_call>  (115) 
1

>  <source_current_task>  (115) 
fix_Car

>  <scenario>  (115) 
1 1 2 0 0 0 0 4 2 3 0 1

>  <current_task>  (115) 
no_task

$$$$

     RDKit          3D

 14 16  0  0  0  0  0  0  0  0999 V2000
  -27.8779   -7.5815  -31.1793 C   0  0  0  0  0  0  0  0  0  0  0  0
  -27.5855   -6.6352  -32.0772 N   0  0  0  0  0  0  0  0  0  0  0  0
  -27.7543   -8.9219  -31.2047 N   0  0  0  0  0  0  0  0  0  0  0  0
  -27.7958   -5.3090  -31.8400 C   0  0  0  0  0  0  0  0  0  0  0  0
  -28.3299   -4.9112  -30.6330 C   0  0  0  0  0  0  0  0  0  0  0  0
  -28.6380   -5.8933  -29.6902 C   0  0  0  0  0  0  0  0  0  0  0  0
  -28.4146   -7.2391  -29.9548 C   0  0  0  0  0  0  0  0  0  0  0  0
  -28.2005   -9.4396  -30.0231 C   0  0  0  0  0  0  0  0  0  0  0  0
  -28.6205   -8.3878  -29.2244 C   0  0  0  0  0  0  0  0  0  0  0  0
  -28.6659   -3.5736  -30.0907 C   0  0  0  0  0  0  0  0  0  0  0  0
  -27.8271   -2.9784  -29.1522 C   0  0  0  0  0  0  0  0  0  0  0  0
  -29.8337   -2.8312  -30.1091 C   0  0  0  0  0  0  0  0  0  0  0  0
  -28.5063   -1.8934  -28.6274 C   0  0  0  0  0  0  0  0  0  0  0  0
  -29.7118   -1.8267  -29.2201 N   0  0  0  0  0  0  0  0  0  0  0  0
  1  2  2  0
  1  3  1  0
  2  4  1  0
  4  5  2  0
  5  6  1  0
  6  7  2  0
  1  7  1  0
  3  8  1  0
  8  9  2  0
  7  9  1  0
  5 10  1  0
 10 11  1  0
 10 12  2  0
 11 13  2  0
 13 14  1  0
 12 14  1  0
M  END
>  <name>  (116) 
Car Nac Nd0 Car Car Car Car Car Car Car Car Car Car Nd0

>  <indices>  (116) 
[0, 1, 2]

>  <tasks>  (116) 
probe_placing close_aromatic_ring close_aromatic_ring close_aromatic_ring close_aromatic_ring ring_built build_to_Nd0 close_aromatic_ring no_task close_aromatic_ring close_aromatic_ring close_aromatic_ring

>  <prot_clashes>  (116) 
8

>  <NBS phar>  (116) 
0.24000000000000005

>  <NBS_non-phar>  (116) 
0.6775671413966587

>  <NBS>  (116) 
0.9175671413966588

>  <source_stage>  (116) 
scored

>  <source_iter>  (116) 
11

>  <source_parent_mol>  (116) 
0

>  <source_scenario>  (116) 
1 1 2 0 0 0 0 4 3 5 0

>  <source_rank_in_scored_call>  (116) 
0

>  <source_current_task>  (116) 
close_aromatic_ring

>  <scenario>  (116) 
1 1 2 0 0 0 0 4 3 5

>  <current_task>  (116) 
no_task

$$$$

     RDKit          3D

 14 16  0  0  0  0  0  0  0  0999 V2000
  -28.0580   -7.3290  -32.0190 C   0  0  0  0  0  0  0  0  0  0  0  0
  -27.4810   -6.2300  -32.5180 N   0  0  0  0  0  0  0  0  0  0  0  0
  -28.1590   -8.5870  -32.4840 N   0  0  0  0  0  0  0  0  0  0  0  0
  -27.4980   -5.0320  -31.8670 C   0  0  0  0  0  0  0  0  0  0  0  0
  -28.1280   -4.9320  -30.6450 C   0  0  0  0  0  0  0  0  0  0  0  0
  -28.7310   -6.0740  -30.1160 C   0  0  0  0  0  0  0  0  0  0  0  0
  -28.7020   -7.2840  -30.8000 C   0  0  0  0  0  0  0  0  0  0  0  0
  -28.8550   -9.3460  -31.5870 C   0  0  0  0  0  0  0  0  0  0  0  0
  -29.2030   -8.5360  -30.5180 C   0  0  0  0  0  0  0  0  0  0  0  0
  -28.3090   -3.7940  -29.7140 C   0  0  0  0  0  0  0  0  0  0  0  0
  -27.5280   -3.7110  -28.5630 C   0  0  0  0  0  0  0  0  0  0  0  0
  -29.3200   -2.8580  -29.5770 C   0  0  0  0  0  0  0  0  0  0  0  0
  -28.0840   -2.7300  -27.7610 C   0  0  0  0  0  0  0  0  0  0  0  0
  -29.1620   -2.2330  -28.3950 N   0  0  0  0  0  0  0  0  0  0  0  0
  1  2  2  0
  1  3  1  0
  1  7  1  0
  2  4  1  0
  3  8  1  0
  4  5  2  0
  5  6  1  0
  5 10  1  0
  6  7  2  0
  7  9  1  0
  8  9  2  0
 10 12  2  0
 10 11  1  0
 11 13  2  0
 12 14  1  0
 13 14  1  0
M  END
>  <name>  (117) 
Car Nac Nd0 Car Car Car Car Car Car Car Car Car Car Nd0

>  <indices>  (117) 
[0, 1, 2]

>  <tasks>  (117) 
probe_placing close_aromatic_ring close_aromatic_ring close_aromatic_ring close_aromatic_ring ring_built build_to_Nd0 close_aromatic_ring no_task close_aromatic_ring close_aromatic_ring close_aromatic_ring

>  <prot_clashes>  (117) 
6

>  <NBS phar>  (117) 
0.15999999999999998

>  <NBS_non-phar>  (117) 
0.5844520841326032

>  <NBS>  (117) 
0.7444520841326032

>  <source_stage>  (117) 
scored

>  <source_iter>  (117) 
11

>  <source_parent_mol>  (117) 
0

>  <source_scenario>  (117) 
1 1 2 0 0 0 0 4 3 5 0

>  <source_rank_in_scored_call>  (117) 
3

>  <source_current_task>  (117) 
close_aromatic_ring

>  <scenario>  (117) 
1 1 2 0 0 0 0 4 3 5

>  <current_task>  (117) 
no_task

$$$$

     RDKit          3D

 15 17  0  0  0  0  0  0  0  0999 V2000
  -27.8780   -7.5820  -31.1790 C   0  0  0  0  0  0  0  0  0  0  0  0
  -27.5850   -6.6350  -32.0770 N   0  0  0  0  0  0  0  0  0  0  0  0
  -27.7540   -8.9220  -31.2050 N   0  0  0  0  0  0  0  0  0  0  0  0
  -27.7960   -5.3090  -31.8400 C   0  0  0  0  0  0  0  0  0  0  0  0
  -28.3300   -4.9110  -30.6330 C   0  0  0  0  0  0  0  0  0  0  0  0
  -28.6380   -5.8930  -29.6900 C   0  0  0  0  0  0  0  0  0  0  0  0
  -28.4150   -7.2390  -29.9550 C   0  0  0  0  0  0  0  0  0  0  0  0
  -28.2010   -9.4400  -30.0230 C   0  0  0  0  0  0  0  0  0  0  0  0
  -28.6200   -8.3880  -29.2240 C   0  0  0  0  0  0  0  0  0  0  0  0
  -28.2452  -10.7923  -29.6888 C   0  0  0  0  0  0  0  0  0  0  0  0
  -29.0679  -11.6033  -30.4748 C   0  0  0  0  0  0  0  0  0  0  0  0
  -27.5661  -11.4451  -28.6674 C   0  0  0  0  0  0  0  0  0  0  0  0
  -27.7005  -12.8080  -28.4490 C   0  0  0  0  0  0  0  0  0  0  0  0
  -28.5084  -13.5615  -29.2329 N   0  0  0  0  0  0  0  0  0  0  0  0
  -29.1922  -12.9582  -30.2462 C   0  0  0  0  0  0  0  0  0  0  0  0
  1  2  2  0
  1  3  1  0
  1  7  1  0
  2  4  1  0
  3  8  1  0
  4  5  2  0
  5  6  1  0
  6  7  2  0
  7  9  1  0
  8 10  1  0
  8  9  2  0
 10 11  2  0
 10 12  1  0
 12 13  2  0
 13 14  1  0
 11 15  1  0
 14 15  2  0
M  END
>  <name>  (118) 
Car Nac Nd0 Car Car Car Car Car Car Car Car Car Car Nac Car

>  <indices>  (118) 
[0, 1, 2]

>  <tasks>  (118) 
probe_placing close_aromatic_ring close_aromatic_ring close_aromatic_ring close_aromatic_ring ring_built build_to_Nd0 close_aromatic_ring no_task close_aromatic_ring close_aromatic_ring close_aromatic_ring close_aromatic_ring

>  <prot_clashes>  (118) 
0

>  <NBS phar>  (118) 
0.22000000000000003

>  <NBS_non-phar>  (118) 
0.7473320643107096

>  <NBS>  (118) 
0.9673320643107097

>  <source_stage>  (118) 
scored

>  <source_iter>  (118) 
12

>  <source_parent_mol>  (118) 
0

>  <source_scenario>  (118) 
1 1 2 0 0 0 0 7 0 2 0 0

>  <source_rank_in_scored_call>  (118) 
0

>  <source_current_task>  (118) 
close_aromatic_ring

>  <scenario>  (118) 
1 1 2 0 0 0 0 7 0 2 0

>  <current_task>  (118) 
no_task

$$$$

     RDKit          3D

 15 17  0  0  0  0  0  0  0  0999 V2000
  -27.8780   -7.5820  -31.1790 C   0  0  0  0  0  0  0  0  0  0  0  0
  -27.5850   -6.6350  -32.0770 N   0  0  0  0  0  0  0  0  0  0  0  0
  -27.7540   -8.9220  -31.2050 N   0  0  0  0  0  0  0  0  0  0  0  0
  -27.7960   -5.3090  -31.8400 C   0  0  0  0  0  0  0  0  0  0  0  0
  -28.3300   -4.9110  -30.6330 C   0  0  0  0  0  0  0  0  0  0  0  0
  -28.6380   -5.8930  -29.6900 C   0  0  0  0  0  0  0  0  0  0  0  0
  -28.4150   -7.2390  -29.9550 C   0  0  0  0  0  0  0  0  0  0  0  0
  -28.2010   -9.4400  -30.0230 C   0  0  0  0  0  0  0  0  0  0  0  0
  -28.6200   -8.3880  -29.2240 C   0  0  0  0  0  0  0  0  0  0  0  0
  -28.2316  -10.8077  -29.6644 C   0  0  0  0  0  0  0  0  0  0  0  0
  -28.9333  -11.6560  -30.5260 C   0  0  0  0  0  0  0  0  0  0  0  0
  -27.5893  -11.4085  -28.5955 C   0  0  0  0  0  0  0  0  0  0  0  0
  -27.6444  -12.7877  -28.3962 C   0  0  0  0  0  0  0  0  0  0  0  0
  -28.3315  -13.5597  -29.2518 N   0  0  0  0  0  0  0  0  0  0  0  0
  -28.9761  -13.0277  -30.3102 C   0  0  0  0  0  0  0  0  0  0  0  0
  1  2  2  0
  1  3  1  0
  1  7  1  0
  2  4  1  0
  3  8  1  0
  4  5  2  0
  5  6  1  0
  6  7  2  0
  7  9  1  0
  8 10  1  0
  8  9  2  0
 10 11  2  0
 10 12  1  0
 12 13  2  0
 13 14  1  0
 14 15  2  0
 11 15  1  0
M  END
>  <name>  (119) 
Car Nac Nd0 Car Car Car Car Car Car Car Car Car Car Nac Car

>  <indices>  (119) 
[0, 1, 2]

>  <tasks>  (119) 
probe_placing close_aromatic_ring close_aromatic_ring close_aromatic_ring close_aromatic_ring ring_built build_to_Nd0 close_aromatic_ring no_task close_aromatic_ring close_aromatic_ring close_aromatic_ring close_aromatic_ring

>  <prot_clashes>  (119) 
0

>  <NBS phar>  (119) 
0.22000000000000003

>  <NBS_non-phar>  (119) 
0.7358973185221355

>  <NBS>  (119) 
0.9558973185221356

>  <source_stage>  (119) 
scored

>  <source_iter>  (119) 
12

>  <source_parent_mol>  (119) 
0

>  <source_scenario>  (119) 
1 1 2 0 0 0 0 7 0 2 0 0

>  <source_rank_in_scored_call>  (119) 
2

>  <source_current_task>  (119) 
close_aromatic_ring

>  <scenario>  (119) 
1 1 2 0 0 0 0 7 0 2 0

>  <current_task>  (119) 
no_task

$$$$

     RDKit          3D

 15 17  0  0  0  0  0  0  0  0999 V2000
  -27.8780   -7.5820  -31.1790 C   0  0  0  0  0  0  0  0  0  0  0  0
  -27.5850   -6.6350  -32.0770 N   0  0  0  0  0  0  0  0  0  0  0  0
  -27.7540   -8.9220  -31.2050 N   0  0  0  0  0  0  0  0  0  0  0  0
  -27.7960   -5.3090  -31.8400 C   0  0  0  0  0  0  0  0  0  0  0  0
  -28.3300   -4.9110  -30.6330 C   0  0  0  0  0  0  0  0  0  0  0  0
  -28.6380   -5.8930  -29.6900 C   0  0  0  0  0  0  0  0  0  0  0  0
  -28.4150   -7.2390  -29.9550 C   0  0  0  0  0  0  0  0  0  0  0  0
  -28.2010   -9.4400  -30.0230 C   0  0  0  0  0  0  0  0  0  0  0  0
  -28.6200   -8.3880  -29.2240 C   0  0  0  0  0  0  0  0  0  0  0  0
  -28.2501  -10.9031  -29.6612 C   0  0  0  0  0  0  0  0  0  0  0  0
  -29.1452  -11.6686  -30.3802 C   0  0  0  0  0  0  0  0  0  0  0  0
  -27.4762  -11.4250  -28.6450 C   0  0  0  0  0  0  0  0  0  0  0  0
  -27.6067  -12.7647  -28.3404 C   0  0  0  0  0  0  0  0  0  0  0  0
  -28.4733  -13.5319  -29.0279 N   0  0  0  0  0  0  0  0  0  0  0  0
  -29.2308  -13.0086  -30.0267 C   0  0  0  0  0  0  0  0  0  0  0  0
  1  2  2  0
  1  3  1  0
  1  7  1  0
  2  4  1  0
  3  8  1  0
  4  5  2  0
  5  6  1  0
  6  7  2  0
  7  9  1  0
  8 10  1  0
  8  9  2  0
 10 11  2  0
 10 12  1  0
 12 13  2  0
 13 14  1  0
 14 15  2  0
 11 15  1  0
M  END
>  <name>  (120) 
Car Nac Nd0 Car Car Car Car Car Car Car Car Car Car Nac Car

>  <indices>  (120) 
[0, 1, 2]

>  <tasks>  (120) 
probe_placing close_aromatic_ring close_aromatic_ring close_aromatic_ring close_aromatic_ring ring_built build_to_Nd0 close_aromatic_ring no_task close_aromatic_ring close_aromatic_ring close_aromatic_ring close_aromatic_ring

>  <prot_clashes>  (120) 
0

>  <NBS phar>  (120) 
0.22000000000000003

>  <NBS_non-phar>  (120) 
0.7318318049112956

>  <NBS>  (120) 
0.9518318049112957

>  <source_stage>  (120) 
scored

>  <source_iter>  (120) 
12

>  <source_parent_mol>  (120) 
0

>  <source_scenario>  (120) 
1 1 2 0 0 0 0 7 0 2 0 0

>  <source_rank_in_scored_call>  (120) 
3

>  <source_current_task>  (120) 
close_aromatic_ring

>  <scenario>  (120) 
1 1 2 0 0 0 0 7 0 2 0

>  <current_task>  (120) 
no_task

$$$$

     RDKit          3D

 15 17  0  0  0  0  0  0  0  0999 V2000
  -27.8180   -7.1840  -31.7450 C   0  0  0  0  0  0  0  0  0  0  0  0
  -27.2990   -6.2230  -32.5180 N   0  0  0  0  0  0  0  0  0  0  0  0
  -27.7000   -8.5240  -31.7670 N   0  0  0  0  0  0  0  0  0  0  0  0
  -27.5550   -4.9000  -32.3140 C   0  0  0  0  0  0  0  0  0  0  0  0
  -28.3770   -4.5180  -31.2750 C   0  0  0  0  0  0  0  0  0  0  0  0
  -28.9220   -5.5150  -30.4630 C   0  0  0  0  0  0  0  0  0  0  0  0
  -28.6480   -6.8580  -30.6910 C   0  0  0  0  0  0  0  0  0  0  0  0
  -28.4380   -9.0590  -30.7500 C   0  0  0  0  0  0  0  0  0  0  0  0
  -29.0400   -8.0180  -30.0610 C   0  0  0  0  0  0  0  0  0  0  0  0
  -28.5870  -10.5280  -30.4440 C   0  0  0  0  0  0  0  0  0  0  0  0
  -29.2740  -11.2700  -31.3830 C   0  0  0  0  0  0  0  0  0  0  0  0
  -28.1010  -11.0790  -29.2750 C   0  0  0  0  0  0  0  0  0  0  0  0
  -28.3150  -12.4230  -29.0430 C   0  0  0  0  0  0  0  0  0  0  0  0
  -28.9810  -13.1660  -29.9450 N   0  0  0  0  0  0  0  0  0  0  0  0
  -29.4560  -12.6150  -31.0930 C   0  0  0  0  0  0  0  0  0  0  0  0
  1  2  2  0
  1  3  1  0
  1  7  1  0
  2  4  1  0
  3  8  1  0
  4  5  2  0
  5  6  1  0
  6  7  2  0
  7  9  1  0
  8 10  1  0
  8  9  2  0
 10 11  2  0
 10 12  1  0
 11 15  1  0
 12 13  2  0
 13 14  1  0
 14 15  2  0
M  END
>  <name>  (121) 
Car Nac Nd0 Car Car Car Car Car Car Car Car Car Car Nac Car

>  <indices>  (121) 
[0, 1, 2]

>  <tasks>  (121) 
probe_placing close_aromatic_ring close_aromatic_ring close_aromatic_ring close_aromatic_ring ring_built build_to_Nd0 close_aromatic_ring no_task close_aromatic_ring close_aromatic_ring close_aromatic_ring close_aromatic_ring

>  <prot_clashes>  (121) 
3

>  <NBS phar>  (121) 
0.22000000000000003

>  <NBS_non-phar>  (121) 
0.5926512400309245

>  <NBS>  (121) 
0.8126512400309245

>  <source_stage>  (121) 
scored

>  <source_iter>  (121) 
12

>  <source_parent_mol>  (121) 
0

>  <source_scenario>  (121) 
1 1 2 0 0 0 0 7 0 2 0 0

>  <source_rank_in_scored_call>  (121) 
4

>  <source_current_task>  (121) 
close_aromatic_ring

>  <scenario>  (121) 
1 1 2 0 0 0 0 7 0 2 0

>  <current_task>  (121) 
no_task

$$$$

     RDKit          3D

 15 17  0  0  0  0  0  0  0  0999 V2000
  -27.8370   -7.3250  -31.9460 C   0  0  0  0  0  0  0  0  0  0  0  0
  -27.3130   -6.2340  -32.5150 N   0  0  0  0  0  0  0  0  0  0  0  0
  -27.6250   -8.6390  -32.1450 N   0  0  0  0  0  0  0  0  0  0  0  0
  -27.6790   -4.9710  -32.1540 C   0  0  0  0  0  0  0  0  0  0  0  0
  -28.6240   -4.7940  -31.1660 C   0  0  0  0  0  0  0  0  0  0  0  0
  -29.1760   -5.9270  -30.5670 C   0  0  0  0  0  0  0  0  0  0  0  0
  -28.7870   -7.2050  -30.9520 C   0  0  0  0  0  0  0  0  0  0  0  0
  -28.4200   -9.3590  -31.2990 C   0  0  0  0  0  0  0  0  0  0  0  0
  -29.1580   -8.4650  -30.5390 C   0  0  0  0  0  0  0  0  0  0  0  0
  -28.4850  -10.7690  -31.2030 C   0  0  0  0  0  0  0  0  0  0  0  0
  -28.7860  -11.4540  -32.3840 C   0  0  0  0  0  0  0  0  0  0  0  0
  -28.2150  -11.5460  -30.0910 C   0  0  0  0  0  0  0  0  0  0  0  0
  -28.2460  -12.9390  -30.1520 C   0  0  0  0  0  0  0  0  0  0  0  0
  -28.5410  -13.5510  -31.3090 N   0  0  0  0  0  0  0  0  0  0  0  0
  -28.8110  -12.8430  -32.4240 C   0  0  0  0  0  0  0  0  0  0  0  0
  1  2  2  0
  1  3  1  0
  1  7  1  0
  2  4  1  0
  3  8  1  0
  4  5  2  0
  5  6  1  0
  6  7  2  0
  7  9  1  0
  8 10  1  0
  8  9  2  0
 10 11  2  0
 10 12  1  0
 11 15  1  0
 12 13  2  0
 13 14  1  0
 14 15  2  0
M  END
>  <name>  (122) 
Car Nac Nd0 Car Car Car Car Car Car Car Car Car Car Nac Car

>  <indices>  (122) 
[0, 1, 2]

>  <tasks>  (122) 
probe_placing close_aromatic_ring close_aromatic_ring close_aromatic_ring close_aromatic_ring ring_built build_to_Nd0 close_aromatic_ring no_task close_aromatic_ring close_aromatic_ring close_aromatic_ring close_aromatic_ring

>  <prot_clashes>  (122) 
6

>  <NBS phar>  (122) 
0.1

>  <NBS_non-phar>  (122) 
0.5328904151916504

>  <NBS>  (122) 
0.6328904151916503

>  <source_stage>  (122) 
scored

>  <source_iter>  (122) 
12

>  <source_parent_mol>  (122) 
0

>  <source_scenario>  (122) 
1 1 2 0 0 0 0 7 0 2 0 0

>  <source_rank_in_scored_call>  (122) 
6

>  <source_current_task>  (122) 
close_aromatic_ring

>  <scenario>  (122) 
1 1 2 0 0 0 0 7 0 2 0

>  <current_task>  (122) 
no_task

$$$$

     RDKit          3D

 15 17  0  0  0  0  0  0  0  0999 V2000
  -27.8180   -7.3200  -31.9260 C   0  0  0  0  0  0  0  0  0  0  0  0
  -27.3150   -6.2280  -32.5130 N   0  0  0  0  0  0  0  0  0  0  0  0
  -27.5740   -8.6330  -32.0980 N   0  0  0  0  0  0  0  0  0  0  0  0
  -27.7120   -4.9670  -32.1800 C   0  0  0  0  0  0  0  0  0  0  0  0
  -28.6670   -4.7920  -31.2020 C   0  0  0  0  0  0  0  0  0  0  0  0
  -29.1960   -5.9260  -30.5830 C   0  0  0  0  0  0  0  0  0  0  0  0
  -28.7770   -7.2020  -30.9410 C   0  0  0  0  0  0  0  0  0  0  0  0
  -28.3580   -9.3530  -31.2430 C   0  0  0  0  0  0  0  0  0  0  0  0
  -29.1210   -8.4620  -30.5050 C   0  0  0  0  0  0  0  0  0  0  0  0
  -28.3960  -10.7420  -31.1450 C   0  0  0  0  0  0  0  0  0  0  0  0
  -28.8180  -11.4370  -32.2820 C   0  0  0  0  0  0  0  0  0  0  0  0
  -28.0620  -11.5340  -30.0520 C   0  0  0  0  0  0  0  0  0  0  0  0
  -28.1430  -12.9180  -30.0960 C   0  0  0  0  0  0  0  0  0  0  0  0
  -28.5560  -13.5570  -31.2170 N   0  0  0  0  0  0  0  0  0  0  0  0
  -28.8930  -12.8150  -32.3100 C   0  0  0  0  0  0  0  0  0  0  0  0
  1  2  2  0
  1  3  1  0
  1  7  1  0
  2  4  1  0
  3  8  1  0
  4  5  2  0
  5  6  1  0
  6  7  2  0
  7  9  1  0
  8 10  1  0
  8  9  2  0
 10 11  2  0
 10 12  1  0
 11 15  1  0
 12 13  2  0
 13 14  1  0
 14 15  2  0
M  END
>  <name>  (123) 
Car Nac Nd0 Car Car Car Car Car Car Car Car Car Car Nac Car

>  <indices>  (123) 
[0, 1, 2]

>  <tasks>  (123) 
probe_placing close_aromatic_ring close_aromatic_ring close_aromatic_ring close_aromatic_ring ring_built build_to_Nd0 close_aromatic_ring no_task close_aromatic_ring close_aromatic_ring close_aromatic_ring close_aromatic_ring

>  <prot_clashes>  (123) 
7

>  <NBS phar>  (123) 
0.1

>  <NBS_non-phar>  (123) 
0.49721158345540367

>  <NBS>  (123) 
0.5972115834554037

>  <source_stage>  (123) 
scored

>  <source_iter>  (123) 
12

>  <source_parent_mol>  (123) 
0

>  <source_scenario>  (123) 
1 1 2 0 0 0 0 7 0 2 0 0

>  <source_rank_in_scored_call>  (123) 
7

>  <source_current_task>  (123) 
close_aromatic_ring

>  <scenario>  (123) 
1 1 2 0 0 0 0 7 0 2 0

>  <current_task>  (123) 
no_task

$$$$

     RDKit          3D

 15 17  0  0  0  0  0  0  0  0999 V2000
  -27.8779   -7.5815  -31.1793 C   0  0  0  0  0  0  0  0  0  0  0  0
  -27.5855   -6.6352  -32.0772 N   0  0  0  0  0  0  0  0  0  0  0  0
  -27.7543   -8.9219  -31.2047 N   0  0  0  0  0  0  0  0  0  0  0  0
  -27.7958   -5.3090  -31.8400 C   0  0  0  0  0  0  0  0  0  0  0  0
  -28.3299   -4.9112  -30.6330 C   0  0  0  0  0  0  0  0  0  0  0  0
  -28.6380   -5.8933  -29.6902 C   0  0  0  0  0  0  0  0  0  0  0  0
  -28.4146   -7.2391  -29.9548 C   0  0  0  0  0  0  0  0  0  0  0  0
  -28.2005   -9.4396  -30.0231 C   0  0  0  0  0  0  0  0  0  0  0  0
  -28.6205   -8.3878  -29.2244 C   0  0  0  0  0  0  0  0  0  0  0  0
  -28.2148  -10.7461  -29.7092 C   0  0  0  0  0  0  0  0  0  0  0  0
  -28.9043  -11.6336  -30.5083 C   0  0  0  0  0  0  0  0  0  0  0  0
  -27.5941  -11.2641  -28.5896 C   0  0  0  0  0  0  0  0  0  0  0  0
  -27.6457  -12.5716  -28.2724 N   0  0  0  0  0  0  0  0  0  0  0  0
  -28.9697  -12.9755  -30.2021 C   0  0  0  0  0  0  0  0  0  0  0  0
  -28.3221  -13.4447  -29.0557 C   0  0  0  0  0  0  0  0  0  0  0  0
  1  2  2  0
  1  3  1  0
  2  4  1  0
  4  5  2  0
  5  6  1  0
  6  7  2  0
  1  7  1  0
  3  8  1  0
  8  9  2  0
  7  9  1  0
  8 10  1  0
 10 11  2  0
 10 12  1  0
 12 13  2  0
 11 14  1  0
 13 15  1  0
 14 15  2  0
M  END
>  <name>  (124) 
Car Nac Nd0 Car Car Car Car Car Car Car Car Car Nac Car Car

>  <indices>  (124) 
[0, 1, 2]

>  <tasks>  (124) 
probe_placing close_aromatic_ring close_aromatic_ring close_aromatic_ring close_aromatic_ring ring_built build_to_Nd0 close_aromatic_ring no_task close_aromatic_ring close_aromatic_ring close_aromatic_ring close_aromatic_ring

>  <prot_clashes>  (124) 
0

>  <NBS phar>  (124) 
0.2

>  <NBS_non-phar>  (124) 
0.7269529342651367

>  <NBS>  (124) 
0.9269529342651368

>  <source_stage>  (124) 
scored

>  <source_iter>  (124) 
12

>  <source_parent_mol>  (124) 
0

>  <source_scenario>  (124) 
1 1 2 0 0 0 0 7 0 2 1 0

>  <source_rank_in_scored_call>  (124) 
1

>  <source_current_task>  (124) 
close_aromatic_ring

>  <scenario>  (124) 
1 1 2 0 0 0 0 7 0 2 1

>  <current_task>  (124) 
no_task

$$$$

     RDKit          3D

 15 17  0  0  0  0  0  0  0  0999 V2000
  -27.8300   -7.3040  -31.9200 C   0  0  0  0  0  0  0  0  0  0  0  0
  -27.3130   -6.2230  -32.5140 N   0  0  0  0  0  0  0  0  0  0  0  0
  -27.6060   -8.6210  -32.0860 N   0  0  0  0  0  0  0  0  0  0  0  0
  -27.6910   -4.9550  -32.1850 C   0  0  0  0  0  0  0  0  0  0  0  0
  -28.6400   -4.7610  -31.2050 C   0  0  0  0  0  0  0  0  0  0  0  0
  -29.1850   -5.8840  -30.5800 C   0  0  0  0  0  0  0  0  0  0  0  0
  -28.7840   -7.1670  -30.9320 C   0  0  0  0  0  0  0  0  0  0  0  0
  -28.3980   -9.3260  -31.2250 C   0  0  0  0  0  0  0  0  0  0  0  0
  -29.1460   -8.4200  -30.4890 C   0  0  0  0  0  0  0  0  0  0  0  0
  -28.4240  -10.6650  -31.1210 C   0  0  0  0  0  0  0  0  0  0  0  0
  -28.7240  -11.4310  -32.2280 C   0  0  0  0  0  0  0  0  0  0  0  0
  -28.1960  -11.3390  -29.9380 C   0  0  0  0  0  0  0  0  0  0  0  0
  -28.2590  -12.6820  -29.8450 N   0  0  0  0  0  0  0  0  0  0  0  0
  -28.7930  -12.8050  -32.1560 C   0  0  0  0  0  0  0  0  0  0  0  0
  -28.5520  -13.4350  -30.9310 C   0  0  0  0  0  0  0  0  0  0  0  0
  1  2  2  0
  1  3  1  0
  1  7  1  0
  2  4  1  0
  3  8  1  0
  4  5  2  0
  5  6  1  0
  6  7  2  0
  7  9  1  0
  8 10  1  0
  8  9  2  0
 10 11  2  0
 10 12  1  0
 11 14  1  0
 12 13  2  0
 13 15  1  0
 14 15  2  0
M  END
>  <name>  (125) 
Car Nac Nd0 Car Car Car Car Car Car Car Car Car Nac Car Car

>  <indices>  (125) 
[0, 1, 2]

>  <tasks>  (125) 
probe_placing close_aromatic_ring close_aromatic_ring close_aromatic_ring close_aromatic_ring ring_built build_to_Nd0 close_aromatic_ring no_task close_aromatic_ring close_aromatic_ring close_aromatic_ring close_aromatic_ring

>  <prot_clashes>  (125) 
4

>  <NBS phar>  (125) 
0.1

>  <NBS_non-phar>  (125) 
0.5359963099161784

>  <NBS>  (125) 
0.6359963099161784

>  <source_stage>  (125) 
scored

>  <source_iter>  (125) 
12

>  <source_parent_mol>  (125) 
0

>  <source_scenario>  (125) 
1 1 2 0 0 0 0 7 0 2 1 0

>  <source_rank_in_scored_call>  (125) 
2

>  <source_current_task>  (125) 
close_aromatic_ring

>  <scenario>  (125) 
1 1 2 0 0 0 0 7 0 2 1

>  <current_task>  (125) 
no_task

$$$$

     RDKit          3D

 15 17  0  0  0  0  0  0  0  0999 V2000
  -27.8779   -7.5815  -31.1793 C   0  0  0  0  0  0  0  0  0  0  0  0
  -27.5855   -6.6352  -32.0772 N   0  0  0  0  0  0  0  0  0  0  0  0
  -27.7543   -8.9219  -31.2047 N   0  0  0  0  0  0  0  0  0  0  0  0
  -27.7958   -5.3090  -31.8400 C   0  0  0  0  0  0  0  0  0  0  0  0
  -28.3299   -4.9112  -30.6330 C   0  0  0  0  0  0  0  0  0  0  0  0
  -28.6380   -5.8933  -29.6902 C   0  0  0  0  0  0  0  0  0  0  0  0
  -28.4146   -7.2391  -29.9548 C   0  0  0  0  0  0  0  0  0  0  0  0
  -28.2005   -9.4396  -30.0231 C   0  0  0  0  0  0  0  0  0  0  0  0
  -28.6205   -8.3878  -29.2244 C   0  0  0  0  0  0  0  0  0  0  0  0
  -28.2648  -10.8437  -29.6985 C   0  0  0  0  0  0  0  0  0  0  0  0
  -28.9726  -11.6509  -30.5699 C   0  0  0  0  0  0  0  0  0  0  0  0
  -27.6023  -11.4310  -28.6372 C   0  0  0  0  0  0  0  0  0  0  0  0
  -29.0060  -13.0257  -30.3665 C   0  0  0  0  0  0  0  0  0  0  0  0
  -28.3538  -13.5652  -29.3288 N   0  0  0  0  0  0  0  0  0  0  0  0
  -27.6564  -12.8076  -28.4632 C   0  0  0  0  0  0  0  0  0  0  0  0
  1  2  2  0
  1  3  1  0
  2  4  1  0
  4  5  2  0
  5  6  1  0
  6  7  2  0
  1  7  1  0
  3  8  1  0
  8  9  2  0
  7  9  1  0
  8 10  1  0
 10 11  2  0
 10 12  1  0
 11 13  1  0
 13 14  2  0
 14 15  1  0
 12 15  2  0
M  END
>  <name>  (126) 
Car Nac Nd0 Car Car Car Car Car Car Car Car Car Car Nac Car

>  <indices>  (126) 
[0, 1, 2]

>  <tasks>  (126) 
probe_placing close_aromatic_ring close_aromatic_ring close_aromatic_ring close_aromatic_ring ring_built build_to_Nd0 close_aromatic_ring no_task close_aromatic_ring close_aromatic_ring close_aromatic_ring close_aromatic_ring

>  <prot_clashes>  (126) 
0

>  <NBS phar>  (126) 
0.22000000000000003

>  <NBS_non-phar>  (126) 
0.7388394037882487

>  <NBS>  (126) 
0.9588394037882488

>  <source_stage>  (126) 
scored

>  <source_iter>  (126) 
12

>  <source_parent_mol>  (126) 
0

>  <source_scenario>  (126) 
1 1 2 0 0 0 0 7 0 2 3 0

>  <source_rank_in_scored_call>  (126) 
0

>  <source_current_task>  (126) 
close_aromatic_ring

>  <scenario>  (126) 
1 1 2 0 0 0 0 7 0 2 3

>  <current_task>  (126) 
no_task

$$$$

     RDKit          3D

 15 17  0  0  0  0  0  0  0  0999 V2000
  -27.9940   -7.1170  -31.9160 C   0  0  0  0  0  0  0  0  0  0  0  0
  -27.4180   -6.1260  -32.6040 N   0  0  0  0  0  0  0  0  0  0  0  0
  -28.0180   -8.4500  -32.0990 N   0  0  0  0  0  0  0  0  0  0  0  0
  -27.5240   -4.8180  -32.2350 C   0  0  0  0  0  0  0  0  0  0  0  0
  -28.2480   -4.4860  -31.1090 C   0  0  0  0  0  0  0  0  0  0  0  0
  -28.8510   -5.5150  -30.3840 C   0  0  0  0  0  0  0  0  0  0  0  0
  -28.7300   -6.8410  -30.7820 C   0  0  0  0  0  0  0  0  0  0  0  0
  -28.7540   -9.0300  -31.1050 C   0  0  0  0  0  0  0  0  0  0  0  0
  -29.2090   -8.0250  -30.2660 C   0  0  0  0  0  0  0  0  0  0  0  0
  -29.0400  -10.4390  -30.9920 C   0  0  0  0  0  0  0  0  0  0  0  0
  -29.6380  -11.0410  -32.0840 C   0  0  0  0  0  0  0  0  0  0  0  0
  -28.6800  -11.2250  -29.9130 C   0  0  0  0  0  0  0  0  0  0  0  0
  -29.8660  -12.4120  -32.0780 C   0  0  0  0  0  0  0  0  0  0  0  0
  -29.5070  -13.1470  -31.0190 N   0  0  0  0  0  0  0  0  0  0  0  0
  -28.9220  -12.5920  -29.9410 C   0  0  0  0  0  0  0  0  0  0  0  0
  1  2  2  0
  1  3  1  0
  1  7  1  0
  2  4  1  0
  3  8  1  0
  4  5  2  0
  5  6  1  0
  6  7  2  0
  7  9  1  0
  8 10  1  0
  8  9  2  0
 10 11  2  0
 10 12  1  0
 11 13  1  0
 12 15  2  0
 13 14  2  0
 14 15  1  0
M  END
>  <name>  (127) 
Car Nac Nd0 Car Car Car Car Car Car Car Car Car Car Nac Car

>  <indices>  (127) 
[0, 1, 2]

>  <tasks>  (127) 
probe_placing close_aromatic_ring close_aromatic_ring close_aromatic_ring close_aromatic_ring ring_built build_to_Nd0 close_aromatic_ring no_task close_aromatic_ring close_aromatic_ring close_aromatic_ring close_aromatic_ring

>  <prot_clashes>  (127) 
7

>  <NBS phar>  (127) 
0.1

>  <NBS_non-phar>  (127) 
0.5733865102132162

>  <NBS>  (127) 
0.6733865102132162

>  <source_stage>  (127) 
scored

>  <source_iter>  (127) 
12

>  <source_parent_mol>  (127) 
0

>  <source_scenario>  (127) 
1 1 2 0 0 0 0 7 0 2 3 0

>  <source_rank_in_scored_call>  (127) 
1

>  <source_current_task>  (127) 
close_aromatic_ring

>  <scenario>  (127) 
1 1 2 0 0 0 0 7 0 2 3

>  <current_task>  (127) 
no_task

$$$$

     RDKit          3D

 16 18  0  0  0  0  0  0  0  0999 V2000
  -27.8200   -7.0520  -31.9580 C   0  0  0  0  0  0  0  0  0  0  0  0
  -27.3450   -5.9570  -32.5610 N   0  0  0  0  0  0  0  0  0  0  0  0
  -27.6860   -8.3630  -32.2300 N   0  0  0  0  0  0  0  0  0  0  0  0
  -27.6080   -4.6970  -32.1090 C   0  0  0  0  0  0  0  0  0  0  0  0
  -28.3930   -4.5280  -30.9880 C   0  0  0  0  0  0  0  0  0  0  0  0
  -28.8930   -5.6660  -30.3540 C   0  0  0  0  0  0  0  0  0  0  0  0
  -28.6110   -6.9400  -30.8330 C   0  0  0  0  0  0  0  0  0  0  0  0
  -28.3760   -9.0890  -31.3010 C   0  0  0  0  0  0  0  0  0  0  0  0
  -28.9640   -8.2030  -30.4120 C   0  0  0  0  0  0  0  0  0  0  0  0
  -28.4860  -10.5700  -31.2530 C   0  0  0  0  0  0  0  0  0  0  0  0
  -28.0970  -11.3430  -30.2520 C   0  0  0  0  0  0  0  0  0  0  0  0
  -29.0100  -11.1490  -32.4800 C   0  0  0  0  0  0  0  0  0  0  0  0
  -28.1540  -12.8260  -30.2890 C   0  0  0  0  0  0  0  0  0  0  0  0
  -28.6870  -13.3150  -31.5450 N   0  0  0  0  0  0  0  0  0  0  0  0
  -29.1010  -12.4620  -32.6050 C   0  0  0  0  0  0  0  0  0  0  0  0
  -29.5510  -12.9550  -33.6560 O   0  0  0  0  0  0  0  0  0  0  0  0
  1  2  2  0
  1  3  1  0
  1  7  1  0
  2  4  1  0
  3  8  1  0
  4  5  2  0
  5  6  1  0
  6  7  2  0
  7  9  1  0
  8 10  1  0
  8  9  2  0
 10 12  2  0
 10 11  1  0
 11 13  2  0
 12 15  1  0
 13 14  1  0
 14 15  1  0
 15 16  2  0
M  END
>  <name>  (128) 
Car Nac Nd0 Car Car Car Car Car Car Car Car Car Car Nd0 Car .=O

>  <indices>  (128) 
[0, 1, 2]

>  <tasks>  (128) 
probe_placing close_aromatic_ring close_aromatic_ring close_aromatic_ring close_aromatic_ring ring_built build_to_Nd0 close_aromatic_ring no_task close_aromatic_ring close_aromatic_ring close_aromatic_ring close_aromatic_ring close_aromatic_ring

>  <prot_clashes>  (128) 
6

>  <NBS phar>  (128) 
0.2

>  <NBS_non-phar>  (128) 
0.5200698971748352

>  <NBS>  (128) 
0.7200698971748352

>  <source_stage>  (128) 
scored

>  <source_iter>  (128) 
13

>  <source_parent_mol>  (128) 
0

>  <source_scenario>  (128) 
1 1 2 0 0 0 0 7 0 2 3 1 0

>  <source_rank_in_scored_call>  (128) 
0

>  <source_current_task>  (128) 
fix_Car

>  <scenario>  (128) 
1 1 2 0 0 0 0 7 0 2 3 1

>  <current_task>  (128) 
no_task

$$$$

     RDKit          3D

 16 18  0  0  0  0  0  0  0  0999 V2000
  -27.8330   -7.3140  -31.9330 C   0  0  0  0  0  0  0  0  0  0  0  0
  -27.3140   -6.2330  -32.5240 N   0  0  0  0  0  0  0  0  0  0  0  0
  -27.6150   -8.6310  -32.1050 N   0  0  0  0  0  0  0  0  0  0  0  0
  -27.6850   -4.9640  -32.1900 C   0  0  0  0  0  0  0  0  0  0  0  0
  -28.6310   -4.7700  -31.2060 C   0  0  0  0  0  0  0  0  0  0  0  0
  -29.1780   -5.8930  -30.5840 C   0  0  0  0  0  0  0  0  0  0  0  0
  -28.7840   -7.1770  -30.9420 C   0  0  0  0  0  0  0  0  0  0  0  0
  -28.4070   -9.3360  -31.2440 C   0  0  0  0  0  0  0  0  0  0  0  0
  -29.1500   -8.4300  -30.5030 C   0  0  0  0  0  0  0  0  0  0  0  0
  -28.4710  -10.8160  -31.1250 C   0  0  0  0  0  0  0  0  0  0  0  0
  -28.2050  -11.5170  -30.0350 C   0  0  0  0  0  0  0  0  0  0  0  0
  -28.7890  -11.4810  -32.3790 C   0  0  0  0  0  0  0  0  0  0  0  0
  -28.2040  -13.0010  -29.9920 C   0  0  0  0  0  0  0  0  0  0  0  0
  -28.5300  -13.5780  -31.2810 N   0  0  0  0  0  0  0  0  0  0  0  0
  -28.8140  -12.8020  -32.4380 C   0  0  0  0  0  0  0  0  0  0  0  0
  -29.0875  -13.3686  -33.5116 O   0  0  0  0  0  0  0  0  0  0  0  0
  1  2  2  0
  1  3  1  0
  1  7  1  0
  2  4  1  0
  3  8  1  0
  4  5  2  0
  5  6  1  0
  6  7  2  0
  7  9  1  0
  8 10  1  0
  8  9  2  0
 10 12  2  0
 10 11  1  0
 12 15  1  0
 11 13  2  0
 15 14  1  0
 14 13  1  0
 15 16  2  0
M  END
>  <name>  (129) 
Car Nac Nd0 Car Car Car Car Car Car Car Car Car Car Nd0 Car .=O

>  <indices>  (129) 
[0, 1, 2]

>  <tasks>  (129) 
probe_placing close_aromatic_ring close_aromatic_ring close_aromatic_ring close_aromatic_ring ring_built build_to_Nd0 close_aromatic_ring no_task close_aromatic_ring close_aromatic_ring close_aromatic_ring close_aromatic_ring close_aromatic_ring

>  <prot_clashes>  (129) 
5

>  <NBS phar>  (129) 
0.2

>  <NBS_non-phar>  (129) 
0.5061649084091187

>  <NBS>  (129) 
0.7061649084091186

>  <source_stage>  (129) 
scored

>  <source_iter>  (129) 
13

>  <source_parent_mol>  (129) 
0

>  <source_scenario>  (129) 
1 1 2 0 0 0 0 7 0 2 3 1 0

>  <source_rank_in_scored_call>  (129) 
1

>  <source_current_task>  (129) 
fix_Car

>  <scenario>  (129) 
1 1 2 0 0 0 0 7 0 2 3 1

>  <current_task>  (129) 
no_task

$$$$

     RDKit          3D

 15 17  0  0  0  0  0  0  0  0999 V2000
  -27.8779   -7.5815  -31.1793 C   0  0  0  0  0  0  0  0  0  0  0  0
  -27.5855   -6.6352  -32.0772 N   0  0  0  0  0  0  0  0  0  0  0  0
  -27.7543   -8.9219  -31.2047 N   0  0  0  0  0  0  0  0  0  0  0  0
  -27.7958   -5.3090  -31.8400 C   0  0  0  0  0  0  0  0  0  0  0  0
  -28.3299   -4.9112  -30.6330 C   0  0  0  0  0  0  0  0  0  0  0  0
  -28.6380   -5.8933  -29.6902 C   0  0  0  0  0  0  0  0  0  0  0  0
  -28.4146   -7.2391  -29.9548 C   0  0  0  0  0  0  0  0  0  0  0  0
  -28.2005   -9.4396  -30.0231 C   0  0  0  0  0  0  0  0  0  0  0  0
  -28.6205   -8.3878  -29.2244 C   0  0  0  0  0  0  0  0  0  0  0  0
  -28.2568  -10.8968  -29.6851 C   0  0  0  0  0  0  0  0  0  0  0  0
  -28.9680  -11.6740  -30.5734 C   0  0  0  0  0  0  0  0  0  0  0  0
  -27.6097  -11.4673  -28.6082 C   0  0  0  0  0  0  0  0  0  0  0  0
  -29.0132  -13.0319  -30.3546 C   0  0  0  0  0  0  0  0  0  0  0  0
  -28.3658  -13.6014  -29.2775 C   0  0  0  0  0  0  0  0  0  0  0  0
  -27.6759  -12.7915  -28.4276 N   0  0  0  0  0  0  0  0  0  0  0  0
  1  2  2  0
  1  3  1  0
  2  4  1  0
  4  5  2  0
  5  6  1  0
  6  7  2  0
  1  7  1  0
  3  8  1  0
  8  9  2  0
  7  9  1  0
  8 10  1  0
 10 11  2  0
 10 12  1  0
 11 13  1  0
 13 14  2  0
 14 15  1  0
 12 15  2  0
M  END
>  <name>  (130) 
Car Nac Nd0 Car Car Car Car Car Car Car Car Car Car Car Nac

>  <indices>  (130) 
[0, 1, 2]

>  <tasks>  (130) 
probe_placing close_aromatic_ring close_aromatic_ring close_aromatic_ring close_aromatic_ring ring_built build_to_Nd0 close_aromatic_ring no_task close_aromatic_ring close_aromatic_ring close_aromatic_ring close_aromatic_ring

>  <prot_clashes>  (130) 
0

>  <NBS phar>  (130) 
0.2

>  <NBS_non-phar>  (130) 
0.7306063969930013

>  <NBS>  (130) 
0.9306063969930014

>  <source_stage>  (130) 
scored

>  <source_iter>  (130) 
12

>  <source_parent_mol>  (130) 
2

>  <source_scenario>  (130) 
1 1 2 0 0 0 0 7 0 2 3 2

>  <source_rank_in_scored_call>  (130) 
0

>  <source_current_task>  (130) 
close_aromatic_ring

>  <scenario>  (130) 
1 1 2 0 0 0 0 7 0 2 3

>  <current_task>  (130) 
no_task

$$$$

     RDKit          3D

 15 17  0  0  0  0  0  0  0  0999 V2000
  -27.8360   -7.3250  -31.9460 C   0  0  0  0  0  0  0  0  0  0  0  0
  -27.3140   -6.2320  -32.5130 N   0  0  0  0  0  0  0  0  0  0  0  0
  -27.6210   -8.6390  -32.1470 N   0  0  0  0  0  0  0  0  0  0  0  0
  -27.6820   -4.9710  -32.1510 C   0  0  0  0  0  0  0  0  0  0  0  0
  -28.6270   -4.7960  -31.1630 C   0  0  0  0  0  0  0  0  0  0  0  0
  -29.1770   -5.9320  -30.5650 C   0  0  0  0  0  0  0  0  0  0  0  0
  -28.7860   -7.2080  -30.9520 C   0  0  0  0  0  0  0  0  0  0  0  0
  -28.4140   -9.3610  -31.3020 C   0  0  0  0  0  0  0  0  0  0  0  0
  -29.1540   -8.4700  -30.5410 C   0  0  0  0  0  0  0  0  0  0  0  0
  -28.4860  -10.8550  -31.2500 C   0  0  0  0  0  0  0  0  0  0  0  0
  -28.7910  -11.4650  -32.4470 C   0  0  0  0  0  0  0  0  0  0  0  0
  -28.2160  -11.6040  -30.1240 C   0  0  0  0  0  0  0  0  0  0  0  0
  -28.8170  -12.8400  -32.4860 C   0  0  0  0  0  0  0  0  0  0  0  0
  -28.5480  -13.5890  -31.3580 C   0  0  0  0  0  0  0  0  0  0  0  0
  -28.2520  -12.9400  -30.1990 N   0  0  0  0  0  0  0  0  0  0  0  0
  1  2  2  0
  1  3  1  0
  1  7  1  0
  2  4  1  0
  3  8  1  0
  4  5  2  0
  5  6  1  0
  6  7  2  0
  7  9  1  0
  8 10  1  0
  8  9  2  0
 10 11  2  0
 10 12  1  0
 11 13  1  0
 12 15  2  0
 13 14  2  0
 14 15  1  0
M  END
>  <name>  (131) 
Car Nac Nd0 Car Car Car Car Car Car Car Car Car Car Car Nac

>  <indices>  (131) 
[0, 1, 2]

>  <tasks>  (131) 
probe_placing close_aromatic_ring close_aromatic_ring close_aromatic_ring close_aromatic_ring ring_built build_to_Nd0 close_aromatic_ring no_task close_aromatic_ring close_aromatic_ring close_aromatic_ring close_aromatic_ring

>  <prot_clashes>  (131) 
6

>  <NBS phar>  (131) 
0.1

>  <NBS_non-phar>  (131) 
0.5302721659342448

>  <NBS>  (131) 
0.6302721659342447

>  <source_stage>  (131) 
scored

>  <source_iter>  (131) 
12

>  <source_parent_mol>  (131) 
2

>  <source_scenario>  (131) 
1 1 2 0 0 0 0 7 0 2 3 2

>  <source_rank_in_scored_call>  (131) 
5

>  <source_current_task>  (131) 
close_aromatic_ring

>  <scenario>  (131) 
1 1 2 0 0 0 0 7 0 2 3

>  <current_task>  (131) 
no_task

$$$$

     RDKit          3D

 15 17  0  0  0  0  0  0  0  0999 V2000
  -27.8779   -7.5815  -31.1793 C   0  0  0  0  0  0  0  0  0  0  0  0
  -27.5855   -6.6352  -32.0772 N   0  0  0  0  0  0  0  0  0  0  0  0
  -27.7543   -8.9219  -31.2047 N   0  0  0  0  0  0  0  0  0  0  0  0
  -27.7958   -5.3090  -31.8400 C   0  0  0  0  0  0  0  0  0  0  0  0
  -28.3299   -4.9112  -30.6330 C   0  0  0  0  0  0  0  0  0  0  0  0
  -28.6380   -5.8933  -29.6902 C   0  0  0  0  0  0  0  0  0  0  0  0
  -28.4146   -7.2391  -29.9548 C   0  0  0  0  0  0  0  0  0  0  0  0
  -28.2005   -9.4396  -30.0231 C   0  0  0  0  0  0  0  0  0  0  0  0
  -28.6205   -8.3878  -29.2244 C   0  0  0  0  0  0  0  0  0  0  0  0
  -28.4861  -10.7995  -29.6437 C   0  0  0  0  0  0  0  0  0  0  0  0
  -29.0096  -11.6204  -30.6494 C   0  0  0  0  0  0  0  0  0  0  0  0
  -29.4061  -12.9106  -30.3160 C   0  0  0  0  0  0  0  0  0  0  0  0
  -29.2935  -13.3792  -29.0423 N   0  0  0  0  0  0  0  0  0  0  0  0
  -28.7893  -12.5993  -28.0560 C   0  0  0  0  0  0  0  0  0  0  0  0
  -28.3897  -11.3150  -28.3660 C   0  0  0  0  0  0  0  0  0  0  0  0
  1  2  2  0
  1  3  1  0
  2  4  1  0
  4  5  2  0
  5  6  1  0
  6  7  2  0
  1  7  1  0
  3  8  1  0
  8  9  2  0
  7  9  1  0
  8 10  1  0
 10 11  2  0
 11 12  1  0
 12 13  2  0
 13 14  1  0
 10 15  1  0
 14 15  2  0
M  END
>  <name>  (132) 
Car Nac Nd0 Car Car Car Car Car Car Car Car Car Nac Car Car

>  <indices>  (132) 
[0, 1, 2]

>  <tasks>  (132) 
probe_placing close_aromatic_ring close_aromatic_ring close_aromatic_ring close_aromatic_ring ring_built build_to_Nd0 close_aromatic_ring no_task close_aromatic_ring close_aromatic_ring close_aromatic_ring close_aromatic_ring

>  <prot_clashes>  (132) 
0

>  <NBS phar>  (132) 
0.2

>  <NBS_non-phar>  (132) 
0.679254659016927

>  <NBS>  (132) 
0.879254659016927

>  <source_stage>  (132) 
scored

>  <source_iter>  (132) 
12

>  <source_parent_mol>  (132) 
1

>  <source_scenario>  (132) 
1 1 2 0 0 0 0 7 0 5 1 1

>  <source_rank_in_scored_call>  (132) 
0

>  <source_current_task>  (132) 
close_aromatic_ring

>  <scenario>  (132) 
1 1 2 0 0 0 0 7 0 5 1

>  <current_task>  (132) 
no_task

$$$$

     RDKit          3D

 15 17  0  0  0  0  0  0  0  0999 V2000
  -27.8330   -7.0210  -31.8800 C   0  0  0  0  0  0  0  0  0  0  0  0
  -27.2550   -6.0090  -32.5360 N   0  0  0  0  0  0  0  0  0  0  0  0
  -27.7160   -8.3570  -31.9950 N   0  0  0  0  0  0  0  0  0  0  0  0
  -27.5240   -4.7020  -32.2520 C   0  0  0  0  0  0  0  0  0  0  0  0
  -28.4230   -4.3950  -31.2530 C   0  0  0  0  0  0  0  0  0  0  0  0
  -29.0300   -5.4460  -30.5630 C   0  0  0  0  0  0  0  0  0  0  0  0
  -28.7410   -6.7700  -30.8720 C   0  0  0  0  0  0  0  0  0  0  0  0
  -28.5300   -8.9620  -31.0810 C   0  0  0  0  0  0  0  0  0  0  0  0
  -29.1820   -7.9720  -30.3640 C   0  0  0  0  0  0  0  0  0  0  0  0
  -28.9330  -10.3390  -30.9510 C   0  0  0  0  0  0  0  0  0  0  0  0
  -29.1020  -11.0440  -32.1480 C   0  0  0  0  0  0  0  0  0  0  0  0
  -29.5940  -12.3440  -32.0910 C   0  0  0  0  0  0  0  0  0  0  0  0
  -29.9100  -12.9290  -30.9020 N   0  0  0  0  0  0  0  0  0  0  0  0
  -29.7530  -12.2620  -29.7340 C   0  0  0  0  0  0  0  0  0  0  0  0
  -29.2660  -10.9710  -29.7690 C   0  0  0  0  0  0  0  0  0  0  0  0
  1  2  2  0
  1  3  1  0
  1  7  1  0
  2  4  1  0
  3  8  1  0
  4  5  2  0
  5  6  1  0
  6  7  2  0
  7  9  1  0
  8 10  1  0
  8  9  2  0
 10 11  2  0
 10 15  1  0
 11 12  1  0
 12 13  2  0
 13 14  1  0
 14 15  2  0
M  END
>  <name>  (133) 
Car Nac Nd0 Car Car Car Car Car Car Car Car Car Nac Car Car

>  <indices>  (133) 
[0, 1, 2]

>  <tasks>  (133) 
probe_placing close_aromatic_ring close_aromatic_ring close_aromatic_ring close_aromatic_ring ring_built build_to_Nd0 close_aromatic_ring no_task close_aromatic_ring close_aromatic_ring close_aromatic_ring close_aromatic_ring

>  <prot_clashes>  (133) 
6

>  <NBS phar>  (133) 
0.1

>  <NBS_non-phar>  (133) 
0.5934719721476237

>  <NBS>  (133) 
0.6934719721476237

>  <source_stage>  (133) 
scored

>  <source_iter>  (133) 
12

>  <source_parent_mol>  (133) 
1

>  <source_scenario>  (133) 
1 1 2 0 0 0 0 7 0 5 1 1

>  <source_rank_in_scored_call>  (133) 
1

>  <source_current_task>  (133) 
close_aromatic_ring

>  <scenario>  (133) 
1 1 2 0 0 0 0 7 0 5 1

>  <current_task>  (133) 
no_task

$$$$

     RDKit          3D

 15 17  0  0  0  0  0  0  0  0999 V2000
  -27.8779   -7.5815  -31.1793 C   0  0  0  0  0  0  0  0  0  0  0  0
  -27.5855   -6.6352  -32.0772 N   0  0  0  0  0  0  0  0  0  0  0  0
  -27.7543   -8.9219  -31.2047 N   0  0  0  0  0  0  0  0  0  0  0  0
  -27.7958   -5.3090  -31.8400 C   0  0  0  0  0  0  0  0  0  0  0  0
  -28.3299   -4.9112  -30.6330 C   0  0  0  0  0  0  0  0  0  0  0  0
  -28.6380   -5.8933  -29.6902 C   0  0  0  0  0  0  0  0  0  0  0  0
  -28.4146   -7.2391  -29.9548 C   0  0  0  0  0  0  0  0  0  0  0  0
  -28.2005   -9.4396  -30.0231 C   0  0  0  0  0  0  0  0  0  0  0  0
  -28.6205   -8.3878  -29.2244 C   0  0  0  0  0  0  0  0  0  0  0  0
  -28.4967  -10.8594  -29.6151 C   0  0  0  0  0  0  0  0  0  0  0  0
  -29.0103  -11.6540  -30.6391 C   0  0  0  0  0  0  0  0  0  0  0  0
  -29.4282  -12.9364  -30.3176 C   0  0  0  0  0  0  0  0  0  0  0  0
  -29.3184  -13.3658  -29.0107 C   0  0  0  0  0  0  0  0  0  0  0  0
  -28.8137  -12.5721  -28.0278 N   0  0  0  0  0  0  0  0  0  0  0  0
  -28.4072  -11.3334  -28.3245 C   0  0  0  0  0  0  0  0  0  0  0  0
  1  2  2  0
  1  3  1  0
  2  4  1  0
  4  5  2  0
  5  6  1  0
  6  7  2  0
  1  7  1  0
  3  8  1  0
  8  9  2  0
  7  9  1  0
  8 10  1  0
 10 11  2  0
 11 12  1  0
 12 13  2  0
 13 14  1  0
 10 15  1  0
 14 15  2  0
M  END
>  <name>  (134) 
Car Nac Nd0 Car Car Car Car Car Car Car Car Car Car Nac Car

>  <indices>  (134) 
[0, 1, 2]

>  <tasks>  (134) 
probe_placing close_aromatic_ring close_aromatic_ring close_aromatic_ring close_aromatic_ring ring_built build_to_Nd0 close_aromatic_ring no_task close_aromatic_ring close_aromatic_ring close_aromatic_ring close_aromatic_ring

>  <prot_clashes>  (134) 
0

>  <NBS phar>  (134) 
0.2

>  <NBS_non-phar>  (134) 
0.6747282028198243

>  <NBS>  (134) 
0.8747282028198242

>  <source_stage>  (134) 
scored

>  <source_iter>  (134) 
12

>  <source_parent_mol>  (134) 
1

>  <source_scenario>  (134) 
1 1 2 0 0 0 0 7 0 5 2 1

>  <source_rank_in_scored_call>  (134) 
0

>  <source_current_task>  (134) 
close_aromatic_ring

>  <scenario>  (134) 
1 1 2 0 0 0 0 7 0 5 2

>  <current_task>  (134) 
no_task

$$$$

     RDKit          3D

 15 17  0  0  0  0  0  0  0  0999 V2000
  -27.7110   -7.2160  -31.8330 C   0  0  0  0  0  0  0  0  0  0  0  0
  -27.2980   -6.1440  -32.5170 N   0  0  0  0  0  0  0  0  0  0  0  0
  -27.4590   -8.5310  -31.9740 N   0  0  0  0  0  0  0  0  0  0  0  0
  -27.6840   -4.8760  -32.1960 C   0  0  0  0  0  0  0  0  0  0  0  0
  -28.5310   -4.6740  -31.1280 C   0  0  0  0  0  0  0  0  0  0  0  0
  -28.9660   -5.7880  -30.4080 C   0  0  0  0  0  0  0  0  0  0  0  0
  -28.5600   -7.0710  -30.7550 C   0  0  0  0  0  0  0  0  0  0  0  0
  -28.1300   -9.2260  -31.0090 C   0  0  0  0  0  0  0  0  0  0  0  0
  -28.8280   -8.3160  -30.2310 C   0  0  0  0  0  0  0  0  0  0  0  0
  -28.3820  -10.7020  -30.8480 C   0  0  0  0  0  0  0  0  0  0  0  0
  -28.5530  -11.3880  -32.0500 C   0  0  0  0  0  0  0  0  0  0  0  0
  -28.9140  -12.7240  -31.9890 C   0  0  0  0  0  0  0  0  0  0  0  0
  -29.0860  -13.3130  -30.7520 C   0  0  0  0  0  0  0  0  0  0  0  0
  -28.9130  -12.6240  -29.5920 N   0  0  0  0  0  0  0  0  0  0  0  0
  -28.5650  -11.3330  -29.6380 C   0  0  0  0  0  0  0  0  0  0  0  0
  1  2  2  0
  1  3  1  0
  1  7  1  0
  2  4  1  0
  3  8  1  0
  4  5  2  0
  5  6  1  0
  6  7  2  0
  7  9  1  0
  8 10  1  0
  8  9  2  0
 10 11  2  0
 10 15  1  0
 11 12  1  0
 12 13  2  0
 13 14  1  0
 14 15  2  0
M  END
>  <name>  (135) 
Car Nac Nd0 Car Car Car Car Car Car Car Car Car Car Nac Car

>  <indices>  (135) 
[0, 1, 2]

>  <tasks>  (135) 
probe_placing close_aromatic_ring close_aromatic_ring close_aromatic_ring close_aromatic_ring ring_built build_to_Nd0 close_aromatic_ring no_task close_aromatic_ring close_aromatic_ring close_aromatic_ring close_aromatic_ring

>  <prot_clashes>  (135) 
1

>  <NBS phar>  (135) 
0.12

>  <NBS_non-phar>  (135) 
0.6477134704589844

>  <NBS>  (135) 
0.7677134704589844

>  <source_stage>  (135) 
scored

>  <source_iter>  (135) 
12

>  <source_parent_mol>  (135) 
1

>  <source_scenario>  (135) 
1 1 2 0 0 0 0 7 0 5 2 1

>  <source_rank_in_scored_call>  (135) 
1

>  <source_current_task>  (135) 
close_aromatic_ring

>  <scenario>  (135) 
1 1 2 0 0 0 0 7 0 5 2

>  <current_task>  (135) 
no_task

$$$$

     RDKit          3D

 15 17  0  0  0  0  0  0  0  0999 V2000
  -27.8779   -7.5815  -31.1793 C   0  0  0  0  0  0  0  0  0  0  0  0
  -27.5855   -6.6352  -32.0772 N   0  0  0  0  0  0  0  0  0  0  0  0
  -27.7543   -8.9219  -31.2047 N   0  0  0  0  0  0  0  0  0  0  0  0
  -27.7958   -5.3090  -31.8400 C   0  0  0  0  0  0  0  0  0  0  0  0
  -28.3299   -4.9112  -30.6330 C   0  0  0  0  0  0  0  0  0  0  0  0
  -28.6380   -5.8933  -29.6902 C   0  0  0  0  0  0  0  0  0  0  0  0
  -28.4146   -7.2391  -29.9548 C   0  0  0  0  0  0  0  0  0  0  0  0
  -28.2005   -9.4396  -30.0231 C   0  0  0  0  0  0  0  0  0  0  0  0
  -28.6205   -8.3878  -29.2244 C   0  0  0  0  0  0  0  0  0  0  0  0
  -28.4957  -10.8326  -29.6234 C   0  0  0  0  0  0  0  0  0  0  0  0
  -29.0192  -11.6658  -30.6177 C   0  0  0  0  0  0  0  0  0  0  0  0
  -29.4241  -12.9449  -30.2927 C   0  0  0  0  0  0  0  0  0  0  0  0
  -29.3027  -13.3738  -28.9898 C   0  0  0  0  0  0  0  0  0  0  0  0
  -28.7840  -12.5377  -28.0224 C   0  0  0  0  0  0  0  0  0  0  0  0
  -28.3917  -11.2866  -28.3579 N   0  0  0  0  0  0  0  0  0  0  0  0
  1  2  2  0
  1  3  1  0
  2  4  1  0
  4  5  2  0
  5  6  1  0
  6  7  2  0
  1  7  1  0
  3  8  1  0
  8  9  2  0
  7  9  1  0
  8 10  1  0
 10 11  2  0
 11 12  1  0
 12 13  2  0
 13 14  1  0
 10 15  1  0
 14 15  2  0
M  END
>  <name>  (136) 
Car Nac Nd0 Car Car Car Car Car Car Car Car Car Car Car Nac

>  <indices>  (136) 
[0, 1, 2]

>  <tasks>  (136) 
probe_placing close_aromatic_ring close_aromatic_ring close_aromatic_ring close_aromatic_ring ring_built build_to_Nd0 close_aromatic_ring no_task close_aromatic_ring close_aromatic_ring close_aromatic_ring close_aromatic_ring

>  <prot_clashes>  (136) 
0

>  <NBS phar>  (136) 
0.2

>  <NBS_non-phar>  (136) 
0.6732109069824219

>  <NBS>  (136) 
0.8732109069824219

>  <source_stage>  (136) 
scored

>  <source_iter>  (136) 
12

>  <source_parent_mol>  (136) 
3

>  <source_scenario>  (136) 
1 1 2 0 0 0 0 7 0 5 2 3

>  <source_rank_in_scored_call>  (136) 
0

>  <source_current_task>  (136) 
close_aromatic_ring

>  <scenario>  (136) 
1 1 2 0 0 0 0 7 0 5 2

>  <current_task>  (136) 
no_task

$$$$

     RDKit          3D

 15 17  0  0  0  0  0  0  0  0999 V2000
  -27.6940   -7.2730  -31.8430 C   0  0  0  0  0  0  0  0  0  0  0  0
  -27.2990   -6.1850  -32.5130 N   0  0  0  0  0  0  0  0  0  0  0  0
  -27.3970   -8.5780  -31.9830 N   0  0  0  0  0  0  0  0  0  0  0  0
  -27.7340   -4.9310  -32.1980 C   0  0  0  0  0  0  0  0  0  0  0  0
  -28.6130   -4.7610  -31.1500 C   0  0  0  0  0  0  0  0  0  0  0  0
  -29.0300   -5.8910  -30.4450 C   0  0  0  0  0  0  0  0  0  0  0  0
  -28.5740   -7.1590  -30.7860 C   0  0  0  0  0  0  0  0  0  0  0  0
  -28.0690   -9.2990  -31.0370 C   0  0  0  0  0  0  0  0  0  0  0  0
  -28.8160   -8.4140  -30.2740 C   0  0  0  0  0  0  0  0  0  0  0  0
  -28.2780  -10.7560  -30.8930 C   0  0  0  0  0  0  0  0  0  0  0  0
  -28.4090  -11.4840  -32.0800 C   0  0  0  0  0  0  0  0  0  0  0  0
  -28.7170  -12.8280  -32.0250 C   0  0  0  0  0  0  0  0  0  0  0  0
  -28.8900  -13.4250  -30.7960 C   0  0  0  0  0  0  0  0  0  0  0  0
  -28.7560  -12.6900  -29.6350 C   0  0  0  0  0  0  0  0  0  0  0  0
  -28.4540  -11.3730  -29.7070 N   0  0  0  0  0  0  0  0  0  0  0  0
  1  2  2  0
  1  3  1  0
  1  7  1  0
  2  4  1  0
  3  8  1  0
  4  5  2  0
  5  6  1  0
  6  7  2  0
  7  9  1  0
  8 10  1  0
  8  9  2  0
 10 11  2  0
 10 15  1  0
 11 12  1  0
 12 13  2  0
 13 14  1  0
 14 15  2  0
M  END
>  <name>  (137) 
Car Nac Nd0 Car Car Car Car Car Car Car Car Car Car Car Nac

>  <indices>  (137) 
[0, 1, 2]

>  <tasks>  (137) 
probe_placing close_aromatic_ring close_aromatic_ring close_aromatic_ring close_aromatic_ring ring_built build_to_Nd0 close_aromatic_ring no_task close_aromatic_ring close_aromatic_ring close_aromatic_ring close_aromatic_ring

>  <prot_clashes>  (137) 
4

>  <NBS phar>  (137) 
0.12

>  <NBS_non-phar>  (137) 
0.5694638570149739

>  <NBS>  (137) 
0.6894638570149739

>  <source_stage>  (137) 
scored

>  <source_iter>  (137) 
12

>  <source_parent_mol>  (137) 
3

>  <source_scenario>  (137) 
1 1 2 0 0 0 0 7 0 5 2 3

>  <source_rank_in_scored_call>  (137) 
1

>  <source_current_task>  (137) 
close_aromatic_ring

>  <scenario>  (137) 
1 1 2 0 0 0 0 7 0 5 2

>  <current_task>  (137) 
no_task

$$$$

     RDKit          3D

 15 17  0  0  0  0  0  0  0  0999 V2000
  -27.8560   -6.9730  -32.0520 C   0  0  0  0  0  0  0  0  0  0  0  0
  -27.3380   -5.8450  -32.5510 N   0  0  0  0  0  0  0  0  0  0  0  0
  -27.7300   -8.2630  -32.4130 N   0  0  0  0  0  0  0  0  0  0  0  0
  -27.6040   -4.6180  -32.0200 C   0  0  0  0  0  0  0  0  0  0  0  0
  -28.4360   -4.5170  -30.9260 C   0  0  0  0  0  0  0  0  0  0  0  0
  -28.9810   -5.6890  -30.3990 C   0  0  0  0  0  0  0  0  0  0  0  0
  -28.6960   -6.9290  -30.9580 C   0  0  0  0  0  0  0  0  0  0  0  0
  -28.4720   -9.0420  -31.5720 C   0  0  0  0  0  0  0  0  0  0  0  0
  -29.0870   -8.2120  -30.6470 C   0  0  0  0  0  0  0  0  0  0  0  0
  -28.6890  -10.6430  -31.7130 C   0  0  0  0  0  0  0  0  0  0  0  0
  -28.2450  -11.3930  -30.6460 C   0  0  0  0  0  0  0  0  0  0  0  0
  -28.2910  -12.7710  -30.7540 C   0  0  0  0  0  0  0  0  0  0  0  0
  -28.7650  -13.3840  -31.8910 C   0  0  0  0  0  0  0  0  0  0  0  0
  -29.1860  -12.6020  -32.9050 N   0  0  0  0  0  0  0  0  0  0  0  0
  -29.1620  -11.2630  -32.8480 C   0  0  0  0  0  0  0  0  0  0  0  0
  1  2  2  0
  1  3  1  0
  1  7  1  0
  2  4  1  0
  3  8  1  0
  4  5  2  0
  5  6  1  0
  6  7  2  0
  7  9  1  0
  8 10  1  0
  8  9  2  0
 10 15  1  0
 10 11  2  0
 11 12  1  0
 12 13  2  0
 13 14  1  0
 14 15  2  0
M  END
>  <name>  (138) 
Car Nac Nd0 Car Car Car Car Car Car Car Car Car Car Nac Car

>  <indices>  (138) 
[0, 1, 2]

>  <tasks>  (138) 
probe_placing close_aromatic_ring close_aromatic_ring close_aromatic_ring close_aromatic_ring ring_built build_to_Nd0 close_aromatic_ring no_task close_aromatic_ring close_aromatic_ring close_aromatic_ring close_aromatic_ring

>  <prot_clashes>  (138) 
6

>  <NBS phar>  (138) 
0.1

>  <NBS_non-phar>  (138) 
0.41535746256510414

>  <NBS>  (138) 
0.5153574625651042

>  <source_stage>  (138) 
scored

>  <source_iter>  (138) 
12

>  <source_parent_mol>  (138) 
0

>  <source_scenario>  (138) 
1 1 2 0 0 0 0 7 2 1 1 0

>  <source_rank_in_scored_call>  (138) 
2

>  <source_current_task>  (138) 
close_aromatic_ring

>  <scenario>  (138) 
1 1 2 0 0 0 0 7 2 1 1

>  <current_task>  (138) 
no_task

$$$$

     RDKit          3D

 16 18  0  0  0  0  0  0  0  0999 V2000
  -27.8779   -7.5815  -31.1793 C   0  0  0  0  0  0  0  0  0  0  0  0
  -27.5855   -6.6352  -32.0772 N   0  0  0  0  0  0  0  0  0  0  0  0
  -27.7543   -8.9219  -31.2047 N   0  0  0  0  0  0  0  0  0  0  0  0
  -27.7958   -5.3090  -31.8400 C   0  0  0  0  0  0  0  0  0  0  0  0
  -28.3299   -4.9112  -30.6330 C   0  0  0  0  0  0  0  0  0  0  0  0
  -28.6380   -5.8933  -29.6902 C   0  0  0  0  0  0  0  0  0  0  0  0
  -28.4146   -7.2391  -29.9548 C   0  0  0  0  0  0  0  0  0  0  0  0
  -28.2005   -9.4396  -30.0231 C   0  0  0  0  0  0  0  0  0  0  0  0
  -28.6205   -8.3878  -29.2244 C   0  0  0  0  0  0  0  0  0  0  0  0
  -28.1952  -10.9128  -29.7391 C   0  0  0  0  0  0  0  0  0  0  0  0
  -27.7347  -11.8233  -30.5316 N   0  0  0  0  0  0  0  0  0  0  0  0
  -28.7656  -11.1973  -28.4737 N   0  0  0  0  0  0  0  0  0  0  0  0
  -27.8270  -13.1696  -30.0655 C   0  0  0  0  0  0  0  0  0  0  0  0
  -28.8969  -12.5301  -27.9280 C   0  0  0  0  0  0  0  0  0  0  0  0
  -28.3481  -13.4921  -28.8972 C   0  0  0  0  0  0  0  0  0  0  0  0
  -29.3917  -12.8160  -26.8227 O   0  0  0  0  0  0  0  0  0  0  0  0
  1  2  2  0
  1  3  1  0
  2  4  1  0
  4  5  2  0
  5  6  1  0
  6  7  2  0
  1  7  1  0
  3  8  1  0
  8  9  2  0
  7  9  1  0
  8 10  1  0
 10 11  2  0
 10 12  1  0
 11 13  1  0
 12 14  1  0
 13 15  2  0
 14 15  1  0
 14 16  2  0
M  END
>  <name>  (139) 
Car Nac Nd0 Car Car Car Car Car Car Car Nac Nd0 Car Car Car .=O

>  <indices>  (139) 
[0, 1, 2]

>  <tasks>  (139) 
probe_placing close_aromatic_ring close_aromatic_ring close_aromatic_ring close_aromatic_ring ring_built build_to_Nd0 close_aromatic_ring no_task close_aromatic_ring close_aromatic_ring close_aromatic_ring close_aromatic_ring close_aromatic_ring

>  <prot_clashes>  (139) 
0

>  <NBS phar>  (139) 
0.2

>  <NBS_non-phar>  (139) 
0.6381903886795044

>  <NBS>  (139) 
0.8381903886795044

>  <source_stage>  (139) 
scored

>  <source_iter>  (139) 
13

>  <source_parent_mol>  (139) 
0

>  <source_scenario>  (139) 
1 1 2 0 0 0 0 7 3 1 0 0 0

>  <source_rank_in_scored_call>  (139) 
0

>  <source_current_task>  (139) 
fix_Car

>  <scenario>  (139) 
1 1 2 0 0 0 0 7 3 1 0 0

>  <current_task>  (139) 
no_task

$$$$

     RDKit          3D

 16 18  0  0  0  0  0  0  0  0999 V2000
  -27.8190   -7.5350  -31.8110 C   0  0  0  0  0  0  0  0  0  0  0  0
  -27.4630   -6.4520  -32.5120 N   0  0  0  0  0  0  0  0  0  0  0  0
  -27.5380   -8.8430  -31.9640 N   0  0  0  0  0  0  0  0  0  0  0  0
  -27.8690   -5.1950  -32.1740 C   0  0  0  0  0  0  0  0  0  0  0  0
  -28.6750   -5.0140  -31.0710 C   0  0  0  0  0  0  0  0  0  0  0  0
  -29.0500   -6.1390  -30.3340 C   0  0  0  0  0  0  0  0  0  0  0  0
  -28.6250   -7.4110  -30.6990 C   0  0  0  0  0  0  0  0  0  0  0  0
  -28.1500   -9.5540  -30.9720 C   0  0  0  0  0  0  0  0  0  0  0  0
  -28.8380   -8.6630  -30.1650 C   0  0  0  0  0  0  0  0  0  0  0  0
  -28.0310  -11.0460  -30.8640 C   0  0  0  0  0  0  0  0  0  0  0  0
  -27.3200  -11.7950  -31.6400 N   0  0  0  0  0  0  0  0  0  0  0  0
  -28.8070  -11.5490  -29.7910 N   0  0  0  0  0  0  0  0  0  0  0  0
  -27.3480  -13.1960  -31.3620 C   0  0  0  0  0  0  0  0  0  0  0  0
  -28.8900  -12.9510  -29.4420 C   0  0  0  0  0  0  0  0  0  0  0  0
  -28.0510  -13.7190  -30.3760 C   0  0  0  0  0  0  0  0  0  0  0  0
  -29.5590  -13.4270  -28.5080 O   0  0  0  0  0  0  0  0  0  0  0  0
  1  2  2  0
  1  3  1  0
  1  7  1  0
  2  4  1  0
  3  8  1  0
  4  5  2  0
  5  6  1  0
  6  7  2  0
  7  9  1  0
  8 10  1  0
  8  9  2  0
 10 11  2  0
 10 12  1  0
 11 13  1  0
 12 14  1  0
 13 15  2  0
 14 15  1  0
 14 16  2  0
M  END
>  <name>  (140) 
Car Nac Nd0 Car Car Car Car Car Car Car Nac Nd0 Car Car Car .=O

>  <indices>  (140) 
[0, 1, 2]

>  <tasks>  (140) 
probe_placing close_aromatic_ring close_aromatic_ring close_aromatic_ring close_aromatic_ring ring_built build_to_Nd0 close_aromatic_ring no_task close_aromatic_ring close_aromatic_ring close_aromatic_ring close_aromatic_ring close_aromatic_ring

>  <prot_clashes>  (140) 
4

>  <NBS phar>  (140) 
0.2

>  <NBS_non-phar>  (140) 
0.44319552183151245

>  <NBS>  (140) 
0.6431955218315124

>  <source_stage>  (140) 
scored

>  <source_iter>  (140) 
13

>  <source_parent_mol>  (140) 
0

>  <source_scenario>  (140) 
1 1 2 0 0 0 0 7 3 1 0 0 0

>  <source_rank_in_scored_call>  (140) 
13

>  <source_current_task>  (140) 
fix_Car

>  <scenario>  (140) 
1 1 2 0 0 0 0 7 3 1 0 0

>  <current_task>  (140) 
no_task

$$$$

     RDKit          3D

 16 18  0  0  0  0  0  0  0  0999 V2000
  -27.7460   -7.3290  -31.8020 C   0  0  0  0  0  0  0  0  0  0  0  0
  -27.2650   -6.3030  -32.5130 N   0  0  0  0  0  0  0  0  0  0  0  0
  -27.4520   -8.6420  -31.7970 N   0  0  0  0  0  0  0  0  0  0  0  0
  -27.7150   -5.0260  -32.3560 C   0  0  0  0  0  0  0  0  0  0  0  0
  -28.7030   -4.7630  -31.4310 C   0  0  0  0  0  0  0  0  0  0  0  0
  -29.2110   -5.8280  -30.6850 C   0  0  0  0  0  0  0  0  0  0  0  0
  -28.7370   -7.1220  -30.8640 C   0  0  0  0  0  0  0  0  0  0  0  0
  -28.2350   -9.2770  -30.8750 C   0  0  0  0  0  0  0  0  0  0  0  0
  -29.0500   -8.3280  -30.2780 C   0  0  0  0  0  0  0  0  0  0  0  0
  -28.1630  -10.8550  -30.5900 C   0  0  0  0  0  0  0  0  0  0  0  0
  -27.3320  -11.5990  -31.2120 N   0  0  0  0  0  0  0  0  0  0  0  0
  -29.1070  -11.2870  -29.5840 C   0  0  0  0  0  0  0  0  0  0  0  0
  -27.2870  -13.0070  -30.9270 C   0  0  0  0  0  0  0  0  0  0  0  0
  -28.2330  -13.4290  -29.9230 N   0  0  0  0  0  0  0  0  0  0  0  0
  -29.1390  -12.5660  -29.2560 C   0  0  0  0  0  0  0  0  0  0  0  0
  -26.5040  -13.7910  -31.4940 O   0  0  0  0  0  0  0  0  0  0  0  0
  1  2  2  0
  1  3  1  0
  1  7  1  0
  2  4  1  0
  3  8  1  0
  4  5  2  0
  5  6  1  0
  6  7  2  0
  7  9  1  0
  8 10  1  0
  8  9  2  0
 10 11  2  0
 10 12  1  0
 11 13  1  0
 12 15  2  0
 13 16  2  0
 13 14  1  0
 14 15  1  0
M  END
>  <name>  (141) 
Car Nac Nd0 Car Car Car Car Car Car Car Nac Car Car Nd0 Car .=O

>  <indices>  (141) 
[0, 1, 2]

>  <tasks>  (141) 
probe_placing close_aromatic_ring close_aromatic_ring close_aromatic_ring close_aromatic_ring ring_built build_to_Nd0 close_aromatic_ring no_task close_aromatic_ring close_aromatic_ring close_aromatic_ring close_aromatic_ring close_aromatic_ring

>  <prot_clashes>  (141) 
6

>  <NBS phar>  (141) 
0.3

>  <NBS_non-phar>  (141) 
0.4807494878768921

>  <NBS>  (141) 
0.7807494878768921

>  <source_stage>  (141) 
scored

>  <source_iter>  (141) 
13

>  <source_parent_mol>  (141) 
0

>  <source_scenario>  (141) 
1 1 2 0 0 0 0 7 3 2 0 1 0

>  <source_rank_in_scored_call>  (141) 
0

>  <source_current_task>  (141) 
fix_Car

>  <scenario>  (141) 
1 1 2 0 0 0 0 7 3 2 0 1

>  <current_task>  (141) 
no_task

$$$$

     RDKit          3D

 16 18  0  0  0  0  0  0  0  0999 V2000
  -27.8779   -7.5815  -31.1793 C   0  0  0  0  0  0  0  0  0  0  0  0
  -27.5855   -6.6352  -32.0772 N   0  0  0  0  0  0  0  0  0  0  0  0
  -27.7543   -8.9219  -31.2047 N   0  0  0  0  0  0  0  0  0  0  0  0
  -27.7958   -5.3090  -31.8400 C   0  0  0  0  0  0  0  0  0  0  0  0
  -28.3299   -4.9112  -30.6330 C   0  0  0  0  0  0  0  0  0  0  0  0
  -28.6380   -5.8933  -29.6902 C   0  0  0  0  0  0  0  0  0  0  0  0
  -28.4146   -7.2391  -29.9548 C   0  0  0  0  0  0  0  0  0  0  0  0
  -28.2005   -9.4396  -30.0231 C   0  0  0  0  0  0  0  0  0  0  0  0
  -28.6205   -8.3878  -29.2244 C   0  0  0  0  0  0  0  0  0  0  0  0
  -28.2067  -11.0106  -29.6905 C   0  0  0  0  0  0  0  0  0  0  0  0
  -27.7591  -11.8623  -30.5306 N   0  0  0  0  0  0  0  0  0  0  0  0
  -28.7480  -11.3063  -28.3839 C   0  0  0  0  0  0  0  0  0  0  0  0
  -27.7699  -13.2610  -30.1998 C   0  0  0  0  0  0  0  0  0  0  0  0
  -28.3120  -13.5457  -28.8939 N   0  0  0  0  0  0  0  0  0  0  0  0
  -28.7986  -12.5666  -27.9920 C   0  0  0  0  0  0  0  0  0  0  0  0
  -27.3504  -14.1446  -30.9689 O   0  0  0  0  0  0  0  0  0  0  0  0
  1  2  2  0
  1  3  1  0
  2  4  1  0
  4  5  2  0
  5  6  1  0
  6  7  2  0
  1  7  1  0
  3  8  1  0
  8  9  2  0
  7  9  1  0
  8 10  1  0
 10 11  2  0
 10 12  1  0
 11 13  1  0
 13 14  1  0
 12 15  2  0
 14 15  1  0
 13 16  2  0
M  END
>  <name>  (142) 
Car Nac Nd0 Car Car Car Car Car Car Car Nac Car Car Nd0 Car .=O

>  <indices>  (142) 
[0, 1, 2]

>  <tasks>  (142) 
probe_placing close_aromatic_ring close_aromatic_ring close_aromatic_ring close_aromatic_ring ring_built build_to_Nd0 close_aromatic_ring no_task close_aromatic_ring close_aromatic_ring close_aromatic_ring close_aromatic_ring close_aromatic_ring

>  <prot_clashes>  (142) 
0

>  <NBS phar>  (142) 
0.2

>  <NBS_non-phar>  (142) 
0.5683107376098633

>  <NBS>  (142) 
0.7683107376098632

>  <source_stage>  (142) 
scored

>  <source_iter>  (142) 
13

>  <source_parent_mol>  (142) 
0

>  <source_scenario>  (142) 
1 1 2 0 0 0 0 7 3 2 0 1 0

>  <source_rank_in_scored_call>  (142) 
2

>  <source_current_task>  (142) 
fix_Car

>  <scenario>  (142) 
1 1 2 0 0 0 0 7 3 2 0 1

>  <current_task>  (142) 
no_task

$$$$

     RDKit          3D

 15 17  0  0  0  0  0  0  0  0999 V2000
  -27.8779   -7.5815  -31.1793 C   0  0  0  0  0  0  0  0  0  0  0  0
  -27.5855   -6.6352  -32.0772 N   0  0  0  0  0  0  0  0  0  0  0  0
  -27.7543   -8.9219  -31.2047 N   0  0  0  0  0  0  0  0  0  0  0  0
  -27.7958   -5.3090  -31.8400 C   0  0  0  0  0  0  0  0  0  0  0  0
  -28.3299   -4.9112  -30.6330 C   0  0  0  0  0  0  0  0  0  0  0  0
  -28.6380   -5.8933  -29.6902 C   0  0  0  0  0  0  0  0  0  0  0  0
  -28.4146   -7.2391  -29.9548 C   0  0  0  0  0  0  0  0  0  0  0  0
  -28.2005   -9.4396  -30.0231 C   0  0  0  0  0  0  0  0  0  0  0  0
  -28.6205   -8.3878  -29.2244 C   0  0  0  0  0  0  0  0  0  0  0  0
  -28.2913  -10.9793  -29.6772 C   0  0  0  0  0  0  0  0  0  0  0  0
  -27.7677  -11.9575  -30.4665 N   0  0  0  0  0  0  0  0  0  0  0  0
  -28.7408  -11.2112  -28.4042 C   0  0  0  0  0  0  0  0  0  0  0  0
  -27.6849  -13.2267  -29.9716 C   0  0  0  0  0  0  0  0  0  0  0  0
  -28.6546  -12.4936  -27.9107 C   0  0  0  0  0  0  0  0  0  0  0  0
  -28.1242  -13.5181  -28.6913 C   0  0  0  0  0  0  0  0  0  0  0  0
  1  2  2  0
  1  3  1  0
  2  4  1  0
  4  5  2  0
  5  6  1  0
  6  7  2  0
  1  7  1  0
  3  8  1  0
  8  9  2  0
  7  9  1  0
  8 10  1  0
 10 11  2  0
 10 12  1  0
 11 13  1  0
 12 14  2  0
 14 15  1  0
 13 15  2  0
M  END
>  <name>  (143) 
Car Nac Nd0 Car Car Car Car Car Car Car Nac Car Car Car Car

>  <indices>  (143) 
[0, 1, 2]

>  <tasks>  (143) 
probe_placing close_aromatic_ring close_aromatic_ring close_aromatic_ring close_aromatic_ring ring_built build_to_Nd0 close_aromatic_ring no_task close_aromatic_ring close_aromatic_ring close_aromatic_ring close_aromatic_ring

>  <prot_clashes>  (143) 
0

>  <NBS phar>  (143) 
0.2

>  <NBS_non-phar>  (143) 
0.618389892578125

>  <NBS>  (143) 
0.818389892578125

>  <source_stage>  (143) 
scored

>  <source_iter>  (143) 
12

>  <source_parent_mol>  (143) 
2

>  <source_scenario>  (143) 
1 1 2 0 0 0 0 7 3 2 0 2

>  <source_rank_in_scored_call>  (143) 
0

>  <source_current_task>  (143) 
close_aromatic_ring

>  <scenario>  (143) 
1 1 2 0 0 0 0 7 3 2 0

>  <current_task>  (143) 
no_task

$$$$

     RDKit          3D

 15 17  0  0  0  0  0  0  0  0999 V2000
  -27.8779   -7.5815  -31.1793 C   0  0  0  0  0  0  0  0  0  0  0  0
  -27.5855   -6.6352  -32.0772 N   0  0  0  0  0  0  0  0  0  0  0  0
  -27.7543   -8.9219  -31.2047 N   0  0  0  0  0  0  0  0  0  0  0  0
  -27.7958   -5.3090  -31.8400 C   0  0  0  0  0  0  0  0  0  0  0  0
  -28.3299   -4.9112  -30.6330 C   0  0  0  0  0  0  0  0  0  0  0  0
  -28.6380   -5.8933  -29.6902 C   0  0  0  0  0  0  0  0  0  0  0  0
  -28.4146   -7.2391  -29.9548 C   0  0  0  0  0  0  0  0  0  0  0  0
  -28.2005   -9.4396  -30.0231 C   0  0  0  0  0  0  0  0  0  0  0  0
  -28.6205   -8.3878  -29.2244 C   0  0  0  0  0  0  0  0  0  0  0  0
  -28.2219  -10.8815  -29.6927 C   0  0  0  0  0  0  0  0  0  0  0  0
  -27.7838  -11.8806  -30.4699 N   0  0  0  0  0  0  0  0  0  0  0  0
  -28.7296  -11.1951  -28.4492 C   0  0  0  0  0  0  0  0  0  0  0  0
  -27.8120  -13.1893  -30.1002 C   0  0  0  0  0  0  0  0  0  0  0  0
  -28.7720  -12.5318  -28.0400 C   0  0  0  0  0  0  0  0  0  0  0  0
  -28.3188  -13.5531  -28.8471 C   0  0  0  0  0  0  0  0  0  0  0  0
  1  2  2  0
  1  3  1  0
  2  4  1  0
  4  5  2  0
  5  6  1  0
  6  7  2  0
  1  7  1  0
  3  8  1  0
  8  9  2  0
  7  9  1  0
  8 10  1  0
 10 11  2  0
 10 12  1  0
 11 13  1  0
 12 14  2  0
 13 15  2  0
 14 15  1  0
M  END
>  <name>  (144) 
Car Nac Nd0 Car Car Car Car Car Car Car Nac Car Car Car Car

>  <indices>  (144) 
[0, 1, 2]

>  <tasks>  (144) 
probe_placing close_aromatic_ring close_aromatic_ring close_aromatic_ring close_aromatic_ring ring_built build_to_Nd0 close_aromatic_ring no_task close_aromatic_ring close_aromatic_ring close_aromatic_ring close_aromatic_ring

>  <prot_clashes>  (144) 
0

>  <NBS phar>  (144) 
0.2

>  <NBS_non-phar>  (144) 
0.6104069391886393

>  <NBS>  (144) 
0.8104069391886393

>  <source_stage>  (144) 
scored

>  <source_iter>  (144) 
12

>  <source_parent_mol>  (144) 
2

>  <source_scenario>  (144) 
1 1 2 0 0 0 0 7 3 2 0 2

>  <source_rank_in_scored_call>  (144) 
2

>  <source_current_task>  (144) 
close_aromatic_ring

>  <scenario>  (144) 
1 1 2 0 0 0 0 7 3 2 0

>  <current_task>  (144) 
no_task

$$$$

     RDKit          3D

 15 17  0  0  0  0  0  0  0  0999 V2000
  -27.7760   -7.4630  -31.8580 C   0  0  0  0  0  0  0  0  0  0  0  0
  -27.3700   -6.3710  -32.5160 N   0  0  0  0  0  0  0  0  0  0  0  0
  -27.5190   -8.7720  -32.0340 N   0  0  0  0  0  0  0  0  0  0  0  0
  -27.7600   -5.1140  -32.1610 C   0  0  0  0  0  0  0  0  0  0  0  0
  -28.6040   -4.9420  -31.0850 C   0  0  0  0  0  0  0  0  0  0  0  0
  -29.0320   -6.0760  -30.3920 C   0  0  0  0  0  0  0  0  0  0  0  0
  -28.6220   -7.3480  -30.7730 C   0  0  0  0  0  0  0  0  0  0  0  0
  -28.1840   -9.4940  -31.0840 C   0  0  0  0  0  0  0  0  0  0  0  0
  -28.8830   -8.6070  -30.2810 C   0  0  0  0  0  0  0  0  0  0  0  0
  -28.2040  -11.0710  -30.9840 C   0  0  0  0  0  0  0  0  0  0  0  0
  -27.4140  -11.8800  -31.7420 N   0  0  0  0  0  0  0  0  0  0  0  0
  -28.9210  -11.5260  -29.9090 C   0  0  0  0  0  0  0  0  0  0  0  0
  -27.3280  -13.2040  -31.4210 C   0  0  0  0  0  0  0  0  0  0  0  0
  -28.8310  -12.8620  -29.5900 C   0  0  0  0  0  0  0  0  0  0  0  0
  -28.0310  -13.7180  -30.3430 C   0  0  0  0  0  0  0  0  0  0  0  0
  1  2  2  0
  1  3  1  0
  1  7  1  0
  2  4  1  0
  3  8  1  0
  4  5  2  0
  5  6  1  0
  6  7  2  0
  7  9  1  0
  8 10  1  0
  8  9  2  0
 10 11  2  0
 10 12  1  0
 11 13  1  0
 12 14  2  0
 13 15  2  0
 14 15  1  0
M  END
>  <name>  (145) 
Car Nac Nd0 Car Car Car Car Car Car Car Nac Car Car Car Car

>  <indices>  (145) 
[0, 1, 2]

>  <tasks>  (145) 
probe_placing close_aromatic_ring close_aromatic_ring close_aromatic_ring close_aromatic_ring ring_built build_to_Nd0 close_aromatic_ring no_task close_aromatic_ring close_aromatic_ring close_aromatic_ring close_aromatic_ring

>  <prot_clashes>  (145) 
3

>  <NBS phar>  (145) 
0.2

>  <NBS_non-phar>  (145) 
0.5110158920288086

>  <NBS>  (145) 
0.7110158920288085

>  <source_stage>  (145) 
scored

>  <source_iter>  (145) 
12

>  <source_parent_mol>  (145) 
2

>  <source_scenario>  (145) 
1 1 2 0 0 0 0 7 3 2 0 2

>  <source_rank_in_scored_call>  (145) 
3

>  <source_current_task>  (145) 
close_aromatic_ring

>  <scenario>  (145) 
1 1 2 0 0 0 0 7 3 2 0

>  <current_task>  (145) 
no_task

$$$$

     RDKit          3D

 15 17  0  0  0  0  0  0  0  0999 V2000
  -27.8130   -7.4880  -31.8210 C   0  0  0  0  0  0  0  0  0  0  0  0
  -27.4630   -6.4110  -32.5330 N   0  0  0  0  0  0  0  0  0  0  0  0
  -27.5310   -8.7960  -31.9630 N   0  0  0  0  0  0  0  0  0  0  0  0
  -27.8690   -5.1510  -32.2050 C   0  0  0  0  0  0  0  0  0  0  0  0
  -28.6700   -4.9620  -31.0990 C   0  0  0  0  0  0  0  0  0  0  0  0
  -29.0400   -6.0810  -30.3500 C   0  0  0  0  0  0  0  0  0  0  0  0
  -28.6140   -7.3550  -30.7050 C   0  0  0  0  0  0  0  0  0  0  0  0
  -28.1360   -9.5000  -30.9610 C   0  0  0  0  0  0  0  0  0  0  0  0
  -28.8220   -8.6020  -30.1590 C   0  0  0  0  0  0  0  0  0  0  0  0
  -28.0530  -10.9680  -30.7980 C   0  0  0  0  0  0  0  0  0  0  0  0
  -27.3590  -11.8150  -31.5700 N   0  0  0  0  0  0  0  0  0  0  0  0
  -28.7530  -11.4830  -29.7270 C   0  0  0  0  0  0  0  0  0  0  0  0
  -27.3060  -13.1570  -31.3550 C   0  0  0  0  0  0  0  0  0  0  0  0
  -28.7180  -12.8600  -29.4800 C   0  0  0  0  0  0  0  0  0  0  0  0
  -28.0010  -13.7230  -30.2800 C   0  0  0  0  0  0  0  0  0  0  0  0
  1  2  2  0
  1  3  1  0
  1  7  1  0
  2  4  1  0
  3  8  1  0
  4  5  2  0
  5  6  1  0
  6  7  2  0
  7  9  1  0
  8 10  1  0
  8  9  2  0
 10 11  2  0
 10 12  1  0
 11 13  1  0
 12 14  2  0
 13 15  2  0
 14 15  1  0
M  END
>  <name>  (146) 
Car Nac Nd0 Car Car Car Car Car Car Car Nac Car Car Car Car

>  <indices>  (146) 
[0, 1, 2]

>  <tasks>  (146) 
probe_placing close_aromatic_ring close_aromatic_ring close_aromatic_ring close_aromatic_ring ring_built build_to_Nd0 close_aromatic_ring no_task close_aromatic_ring close_aromatic_ring close_aromatic_ring close_aromatic_ring

>  <prot_clashes>  (146) 
4

>  <NBS phar>  (146) 
0.2

>  <NBS_non-phar>  (146) 
0.4924648284912109

>  <NBS>  (146) 
0.6924648284912109

>  <source_stage>  (146) 
scored

>  <source_iter>  (146) 
12

>  <source_parent_mol>  (146) 
2

>  <source_scenario>  (146) 
1 1 2 0 0 0 0 7 3 2 0 2

>  <source_rank_in_scored_call>  (146) 
4

>  <source_current_task>  (146) 
close_aromatic_ring

>  <scenario>  (146) 
1 1 2 0 0 0 0 7 3 2 0

>  <current_task>  (146) 
no_task

$$$$

     RDKit          3D

 16 18  0  0  0  0  0  0  0  0999 V2000
  -27.8779   -7.5815  -31.1793 C   0  0  0  0  0  0  0  0  0  0  0  0
  -27.5855   -6.6352  -32.0772 N   0  0  0  0  0  0  0  0  0  0  0  0
  -27.7543   -8.9219  -31.2047 N   0  0  0  0  0  0  0  0  0  0  0  0
  -27.7958   -5.3090  -31.8400 C   0  0  0  0  0  0  0  0  0  0  0  0
  -28.3299   -4.9112  -30.6330 C   0  0  0  0  0  0  0  0  0  0  0  0
  -28.6380   -5.8933  -29.6902 C   0  0  0  0  0  0  0  0  0  0  0  0
  -28.4146   -7.2391  -29.9548 C   0  0  0  0  0  0  0  0  0  0  0  0
  -28.2005   -9.4396  -30.0231 C   0  0  0  0  0  0  0  0  0  0  0  0
  -28.6205   -8.3878  -29.2244 C   0  0  0  0  0  0  0  0  0  0  0  0
  -28.2124  -10.9202  -29.7043 C   0  0  0  0  0  0  0  0  0  0  0  0
  -28.6866  -11.3007  -28.4172 N   0  0  0  0  0  0  0  0  0  0  0  0
  -27.7785  -11.8033  -30.5809 C   0  0  0  0  0  0  0  0  0  0  0  0
  -28.6823  -12.5572  -28.1203 C   0  0  0  0  0  0  0  0  0  0  0  0
  -28.2236  -13.5391  -29.0351 N   0  0  0  0  0  0  0  0  0  0  0  0
  -27.7251  -13.2630  -30.3580 C   0  0  0  0  0  0  0  0  0  0  0  0
  -27.3186  -14.1097  -31.1742 O   0  0  0  0  0  0  0  0  0  0  0  0
  1  2  2  0
  1  3  1  0
  2  4  1  0
  4  5  2  0
  5  6  1  0
  6  7  2  0
  1  7  1  0
  3  8  1  0
  8  9  2  0
  7  9  1  0
  8 10  1  0
 10 11  1  0
 10 12  2  0
 11 13  2  0
 13 14  1  0
 12 15  1  0
 14 15  1  0
 15 16  2  0
M  END
>  <name>  (147) 
Car Nac Nd0 Car Car Car Car Car Car Car Nac Car Car Nd0 Car .=O

>  <indices>  (147) 
[0, 1, 2]

>  <tasks>  (147) 
probe_placing close_aromatic_ring close_aromatic_ring close_aromatic_ring close_aromatic_ring ring_built build_to_Nd0 close_aromatic_ring no_task close_aromatic_ring close_aromatic_ring close_aromatic_ring close_aromatic_ring close_aromatic_ring

>  <prot_clashes>  (147) 
0

>  <NBS phar>  (147) 
0.2

>  <NBS_non-phar>  (147) 
0.5625135898590088

>  <NBS>  (147) 
0.7625135898590087

>  <source_stage>  (147) 
scored

>  <source_iter>  (147) 
13

>  <source_parent_mol>  (147) 
0

>  <source_scenario>  (147) 
1 1 2 0 0 0 0 7 4 1 0 0 0

>  <source_rank_in_scored_call>  (147) 
0

>  <source_current_task>  (147) 
fix_Car

>  <scenario>  (147) 
1 1 2 0 0 0 0 7 4 1 0 0

>  <current_task>  (147) 
no_task

$$$$

     RDKit          3D

 16 18  0  0  0  0  0  0  0  0999 V2000
  -27.8560   -7.4050  -31.7820 C   0  0  0  0  0  0  0  0  0  0  0  0
  -27.3300   -6.4150  -32.5120 N   0  0  0  0  0  0  0  0  0  0  0  0
  -27.6590   -8.7370  -31.7890 N   0  0  0  0  0  0  0  0  0  0  0  0
  -27.6790   -5.1090  -32.3360 C   0  0  0  0  0  0  0  0  0  0  0  0
  -28.6080   -4.7770  -31.3730 C   0  0  0  0  0  0  0  0  0  0  0  0
  -29.1620   -5.8040  -30.6070 C   0  0  0  0  0  0  0  0  0  0  0  0
  -28.7910   -7.1290  -30.8050 C   0  0  0  0  0  0  0  0  0  0  0  0
  -28.4490   -9.3150  -30.8360 C   0  0  0  0  0  0  0  0  0  0  0  0
  -29.1680   -8.3110  -30.2070 C   0  0  0  0  0  0  0  0  0  0  0  0
  -28.4870  -10.8040  -30.5660 C   0  0  0  0  0  0  0  0  0  0  0  0
  -29.3460  -11.2500  -29.5220 N   0  0  0  0  0  0  0  0  0  0  0  0
  -27.7380  -11.6360  -31.2610 C   0  0  0  0  0  0  0  0  0  0  0  0
  -29.3740  -12.5140  -29.2630 C   0  0  0  0  0  0  0  0  0  0  0  0
  -28.5830  -13.4430  -29.9870 N   0  0  0  0  0  0  0  0  0  0  0  0
  -27.6840  -13.0990  -31.0590 C   0  0  0  0  0  0  0  0  0  0  0  0
  -26.9830  -13.8980  -31.7060 O   0  0  0  0  0  0  0  0  0  0  0  0
  1  2  2  0
  1  3  1  0
  1  7  1  0
  2  4  1  0
  3  8  1  0
  4  5  2  0
  5  6  1  0
  6  7  2  0
  7  9  1  0
  8 10  1  0
  8  9  2  0
 10 12  2  0
 10 11  1  0
 11 13  2  0
 12 15  1  0
 13 14  1  0
 14 15  1  0
 15 16  2  0
M  END
>  <name>  (148) 
Car Nac Nd0 Car Car Car Car Car Car Car Nac Car Car Nd0 Car .=O

>  <indices>  (148) 
[0, 1, 2]

>  <tasks>  (148) 
probe_placing close_aromatic_ring close_aromatic_ring close_aromatic_ring close_aromatic_ring ring_built build_to_Nd0 close_aromatic_ring no_task close_aromatic_ring close_aromatic_ring close_aromatic_ring close_aromatic_ring close_aromatic_ring

>  <prot_clashes>  (148) 
3

>  <NBS phar>  (148) 
0.2

>  <NBS_non-phar>  (148) 
0.4652736783027649

>  <NBS>  (148) 
0.6652736783027648

>  <source_stage>  (148) 
scored

>  <source_iter>  (148) 
13

>  <source_parent_mol>  (148) 
0

>  <source_scenario>  (148) 
1 1 2 0 0 0 0 7 4 1 0 0 0

>  <source_rank_in_scored_call>  (148) 
7

>  <source_current_task>  (148) 
fix_Car

>  <scenario>  (148) 
1 1 2 0 0 0 0 7 4 1 0 0

>  <current_task>  (148) 
no_task

$$$$

     RDKit          3D

 15 17  0  0  0  0  0  0  0  0999 V2000
  -27.8779   -7.5815  -31.1793 C   0  0  0  0  0  0  0  0  0  0  0  0
  -27.5855   -6.6352  -32.0772 N   0  0  0  0  0  0  0  0  0  0  0  0
  -27.7543   -8.9219  -31.2047 N   0  0  0  0  0  0  0  0  0  0  0  0
  -27.7958   -5.3090  -31.8400 C   0  0  0  0  0  0  0  0  0  0  0  0
  -28.3299   -4.9112  -30.6330 C   0  0  0  0  0  0  0  0  0  0  0  0
  -28.6380   -5.8933  -29.6902 C   0  0  0  0  0  0  0  0  0  0  0  0
  -28.4146   -7.2391  -29.9548 C   0  0  0  0  0  0  0  0  0  0  0  0
  -28.2005   -9.4396  -30.0231 C   0  0  0  0  0  0  0  0  0  0  0  0
  -28.6205   -8.3878  -29.2244 C   0  0  0  0  0  0  0  0  0  0  0  0
  -28.2187  -10.8270  -29.7089 C   0  0  0  0  0  0  0  0  0  0  0  0
  -28.5782  -11.3164  -28.5056 N   0  0  0  0  0  0  0  0  0  0  0  0
  -27.8881  -11.6802  -30.7677 C   0  0  0  0  0  0  0  0  0  0  0  0
  -28.6383  -12.6561  -28.2584 C   0  0  0  0  0  0  0  0  0  0  0  0
  -28.3202  -13.5466  -29.2745 C   0  0  0  0  0  0  0  0  0  0  0  0
  -27.9539  -13.0332  -30.5011 C   0  0  0  0  0  0  0  0  0  0  0  0
  1  2  2  0
  1  3  1  0
  2  4  1  0
  4  5  2  0
  5  6  1  0
  6  7  2  0
  1  7  1  0
  3  8  1  0
  8  9  2  0
  7  9  1  0
  8 10  1  0
 10 11  2  0
 10 12  1  0
 11 13  1  0
 13 14  2  0
 12 15  2  0
 14 15  1  0
M  END
>  <name>  (149) 
Car Nac Nd0 Car Car Car Car Car Car Car Nac Car Car Car Car

>  <indices>  (149) 
[0, 1, 2]

>  <tasks>  (149) 
probe_placing close_aromatic_ring close_aromatic_ring close_aromatic_ring close_aromatic_ring ring_built build_to_Nd0 close_aromatic_ring no_task close_aromatic_ring close_aromatic_ring close_aromatic_ring close_aromatic_ring

>  <prot_clashes>  (149) 
0

>  <NBS phar>  (149) 
0.2

>  <NBS_non-phar>  (149) 
0.632962163289388

>  <NBS>  (149) 
0.832962163289388

>  <source_stage>  (149) 
scored

>  <source_iter>  (149) 
12

>  <source_parent_mol>  (149) 
1

>  <source_scenario>  (149) 
1 1 2 0 0 0 0 7 4 1 0 1

>  <source_rank_in_scored_call>  (149) 
0

>  <source_current_task>  (149) 
close_aromatic_ring

>  <scenario>  (149) 
1 1 2 0 0 0 0 7 4 1 0

>  <current_task>  (149) 
no_task

$$$$

     RDKit          3D

 15 17  0  0  0  0  0  0  0  0999 V2000
  -28.0220   -7.3530  -31.9350 C   0  0  0  0  0  0  0  0  0  0  0  0
  -27.5050   -6.3150  -32.6020 N   0  0  0  0  0  0  0  0  0  0  0  0
  -27.9600   -8.6810  -32.1410 N   0  0  0  0  0  0  0  0  0  0  0  0
  -27.6970   -5.0230  -32.2120 C   0  0  0  0  0  0  0  0  0  0  0  0
  -28.4500   -4.7570  -31.0880 C   0  0  0  0  0  0  0  0  0  0  0  0
  -28.9930   -5.8350  -30.3860 C   0  0  0  0  0  0  0  0  0  0  0  0
  -28.7840   -7.1440  -30.8040 C   0  0  0  0  0  0  0  0  0  0  0  0
  -28.6660   -9.3230  -31.1640 C   0  0  0  0  0  0  0  0  0  0  0  0
  -29.1910   -8.3640  -30.3120 C   0  0  0  0  0  0  0  0  0  0  0  0
  -28.8140  -10.7350  -31.0750 C   0  0  0  0  0  0  0  0  0  0  0  0
  -29.4380  -11.3580  -30.0560 N   0  0  0  0  0  0  0  0  0  0  0  0
  -28.3120  -11.4550  -32.1660 C   0  0  0  0  0  0  0  0  0  0  0  0
  -29.6110  -12.7110  -30.0330 C   0  0  0  0  0  0  0  0  0  0  0  0
  -29.1320  -13.4730  -31.0900 C   0  0  0  0  0  0  0  0  0  0  0  0
  -28.4960  -12.8220  -32.1270 C   0  0  0  0  0  0  0  0  0  0  0  0
  1  2  2  0
  1  3  1  0
  1  7  1  0
  2  4  1  0
  3  8  1  0
  4  5  2  0
  5  6  1  0
  6  7  2  0
  7  9  1  0
  8 10  1  0
  8  9  2  0
 10 12  1  0
 10 11  2  0
 11 13  1  0
 12 15  2  0
 13 14  2  0
 14 15  1  0
M  END
>  <name>  (150) 
Car Nac Nd0 Car Car Car Car Car Car Car Nac Car Car Car Car

>  <indices>  (150) 
[0, 1, 2]

>  <tasks>  (150) 
probe_placing close_aromatic_ring close_aromatic_ring close_aromatic_ring close_aromatic_ring ring_built build_to_Nd0 close_aromatic_ring no_task close_aromatic_ring close_aromatic_ring close_aromatic_ring close_aromatic_ring

>  <prot_clashes>  (150) 
1

>  <NBS phar>  (150) 
0.13999999999999999

>  <NBS_non-phar>  (150) 
0.5021385828653971

>  <NBS>  (150) 
0.6421385828653972

>  <source_stage>  (150) 
scored

>  <source_iter>  (150) 
12

>  <source_parent_mol>  (150) 
1

>  <source_scenario>  (150) 
1 1 2 0 0 0 0 7 4 1 0 1

>  <source_rank_in_scored_call>  (150) 
1

>  <source_current_task>  (150) 
close_aromatic_ring

>  <scenario>  (150) 
1 1 2 0 0 0 0 7 4 1 0

>  <current_task>  (150) 
no_task

$$$$

     RDKit          3D

 15 17  0  0  0  0  0  0  0  0999 V2000
  -28.1500   -7.2580  -32.1820 C   0  0  0  0  0  0  0  0  0  0  0  0
  -27.6770   -6.2140  -32.8730 N   0  0  0  0  0  0  0  0  0  0  0  0
  -28.1300   -8.5820  -32.4190 N   0  0  0  0  0  0  0  0  0  0  0  0
  -27.8100   -4.9280  -32.4420 C   0  0  0  0  0  0  0  0  0  0  0  0
  -28.4520   -4.6740  -31.2480 C   0  0  0  0  0  0  0  0  0  0  0  0
  -28.9470   -5.7580  -30.5210 C   0  0  0  0  0  0  0  0  0  0  0  0
  -28.8010   -7.0600  -30.9820 C   0  0  0  0  0  0  0  0  0  0  0  0
  -28.7550   -9.2340  -31.3940 C   0  0  0  0  0  0  0  0  0  0  0  0
  -29.1830   -8.2840  -30.4790 C   0  0  0  0  0  0  0  0  0  0  0  0
  -28.9280  -10.6590  -31.3000 C   0  0  0  0  0  0  0  0  0  0  0  0
  -29.5540  -11.2400  -30.2340 N   0  0  0  0  0  0  0  0  0  0  0  0
  -28.4130  -11.4160  -32.3340 C   0  0  0  0  0  0  0  0  0  0  0  0
  -29.6810  -12.5980  -30.1750 C   0  0  0  0  0  0  0  0  0  0  0  0
  -29.1640  -13.3520  -31.2110 C   0  0  0  0  0  0  0  0  0  0  0  0
  -28.5250  -12.7900  -32.3020 C   0  0  0  0  0  0  0  0  0  0  0  0
  1  2  2  0
  1  3  1  0
  1  7  1  0
  2  4  1  0
  3  8  1  0
  4  5  2  0
  5  6  1  0
  6  7  2  0
  7  9  1  0
  8 10  1  0
  8  9  2  0
 10 12  1  0
 10 11  2  0
 11 13  1  0
 12 15  2  0
 13 14  2  0
 14 15  1  0
M  END
>  <name>  (151) 
Car Nac Nd0 Car Car Car Car Car Car Car Nac Car Car Car Car

>  <indices>  (151) 
[0, 1, 2]

>  <tasks>  (151) 
probe_placing close_aromatic_ring close_aromatic_ring close_aromatic_ring close_aromatic_ring ring_built build_to_Nd0 close_aromatic_ring no_task close_aromatic_ring close_aromatic_ring close_aromatic_ring close_aromatic_ring

>  <prot_clashes>  (151) 
2

>  <NBS phar>  (151) 
0.13999999999999999

>  <NBS_non-phar>  (151) 
0.43794775009155273

>  <NBS>  (151) 
0.5779477500915527

>  <source_stage>  (151) 
scored

>  <source_iter>  (151) 
12

>  <source_parent_mol>  (151) 
1

>  <source_scenario>  (151) 
1 1 2 0 0 0 0 7 4 1 0 1

>  <source_rank_in_scored_call>  (151) 
3

>  <source_current_task>  (151) 
close_aromatic_ring

>  <scenario>  (151) 
1 1 2 0 0 0 0 7 4 1 0

>  <current_task>  (151) 
no_task

$$$$

     RDKit          3D

 15 17  0  0  0  0  0  0  0  0999 V2000
  -28.1250   -7.4230  -32.1520 C   0  0  0  0  0  0  0  0  0  0  0  0
  -27.5940   -6.3480  -32.7450 N   0  0  0  0  0  0  0  0  0  0  0  0
  -28.1350   -8.7270  -32.4850 N   0  0  0  0  0  0  0  0  0  0  0  0
  -27.7050   -5.0930  -32.2240 C   0  0  0  0  0  0  0  0  0  0  0  0
  -28.3880   -4.9060  -31.0410 C   0  0  0  0  0  0  0  0  0  0  0  0
  -28.9450   -6.0220  -30.4160 C   0  0  0  0  0  0  0  0  0  0  0  0
  -28.8190   -7.2920  -30.9660 C   0  0  0  0  0  0  0  0  0  0  0  0
  -28.8220   -9.4300  -31.5360 C   0  0  0  0  0  0  0  0  0  0  0  0
  -29.2580   -8.5360  -30.5710 C   0  0  0  0  0  0  0  0  0  0  0  0
  -29.0230  -10.8540  -31.5750 C   0  0  0  0  0  0  0  0  0  0  0  0
  -29.7600  -11.5060  -30.6620 N   0  0  0  0  0  0  0  0  0  0  0  0
  -28.3730  -11.6160  -32.5180 C   0  0  0  0  0  0  0  0  0  0  0  0
  -29.8860  -12.8430  -30.6290 C   0  0  0  0  0  0  0  0  0  0  0  0
  -29.2480  -13.6400  -31.5580 C   0  0  0  0  0  0  0  0  0  0  0  0
  -28.4710  -13.0000  -32.5280 C   0  0  0  0  0  0  0  0  0  0  0  0
  1  2  2  0
  1  3  1  0
  1  7  1  0
  2  4  1  0
  3  8  1  0
  4  5  2  0
  5  6  1  0
  6  7  2  0
  7  9  1  0
  8 10  1  0
  8  9  2  0
 10 12  1  0
 10 11  2  0
 11 13  1  0
 12 15  2  0
 13 14  2  0
 14 15  1  0
M  END
>  <name>  (152) 
Car Nac Nd0 Car Car Car Car Car Car Car Nac Car Car Car Car

>  <indices>  (152) 
[0, 1, 2]

>  <tasks>  (152) 
probe_placing close_aromatic_ring close_aromatic_ring close_aromatic_ring close_aromatic_ring ring_built build_to_Nd0 close_aromatic_ring no_task close_aromatic_ring close_aromatic_ring close_aromatic_ring close_aromatic_ring

>  <prot_clashes>  (152) 
2

>  <NBS phar>  (152) 
0.12

>  <NBS_non-phar>  (152) 
0.3537090937296549

>  <NBS>  (152) 
0.4737090937296549

>  <source_stage>  (152) 
scored

>  <source_iter>  (152) 
12

>  <source_parent_mol>  (152) 
1

>  <source_scenario>  (152) 
1 1 2 0 0 0 0 7 4 1 0 1

>  <source_rank_in_scored_call>  (152) 
4

>  <source_current_task>  (152) 
close_aromatic_ring

>  <scenario>  (152) 
1 1 2 0 0 0 0 7 4 1 0

>  <current_task>  (152) 
no_task

$$$$

     RDKit          3D

 15 17  0  0  0  0  0  0  0  0999 V2000
  -27.8779   -7.5815  -31.1793 C   0  0  0  0  0  0  0  0  0  0  0  0
  -27.5855   -6.6352  -32.0772 N   0  0  0  0  0  0  0  0  0  0  0  0
  -27.7543   -8.9219  -31.2047 N   0  0  0  0  0  0  0  0  0  0  0  0
  -27.7958   -5.3090  -31.8400 C   0  0  0  0  0  0  0  0  0  0  0  0
  -28.3299   -4.9112  -30.6330 C   0  0  0  0  0  0  0  0  0  0  0  0
  -28.6380   -5.8933  -29.6902 C   0  0  0  0  0  0  0  0  0  0  0  0
  -28.4146   -7.2391  -29.9548 C   0  0  0  0  0  0  0  0  0  0  0  0
  -28.2005   -9.4396  -30.0231 C   0  0  0  0  0  0  0  0  0  0  0  0
  -28.6205   -8.3878  -29.2244 C   0  0  0  0  0  0  0  0  0  0  0  0
  -28.1596  -10.8849  -29.6469 C   0  0  0  0  0  0  0  0  0  0  0  0
  -28.6731  -11.3752  -28.4887 N   0  0  0  0  0  0  0  0  0  0  0  0
  -27.7446  -11.7368  -30.6554 C   0  0  0  0  0  0  0  0  0  0  0  0
  -28.7953  -12.6984  -28.2831 C   0  0  0  0  0  0  0  0  0  0  0  0
  -27.8526  -13.1014  -30.4851 C   0  0  0  0  0  0  0  0  0  0  0  0
  -28.3804  -13.5445  -29.2910 C   0  0  0  0  0  0  0  0  0  0  0  0
  1  2  2  0
  1  3  1  0
  2  4  1  0
  4  5  2  0
  5  6  1  0
  6  7  2  0
  1  7  1  0
  3  8  1  0
  8  9  2  0
  7  9  1  0
  8 10  1  0
 10 11  2  0
 10 12  1  0
 11 13  1  0
 12 14  2  0
 14 15  1  0
 13 15  2  0
M  END
>  <name>  (153) 
Car Nac Nd0 Car Car Car Car Car Car Car Nac Car Car Car Car

>  <indices>  (153) 
[0, 1, 2]

>  <tasks>  (153) 
probe_placing close_aromatic_ring close_aromatic_ring close_aromatic_ring close_aromatic_ring ring_built build_to_Nd0 close_aromatic_ring no_task close_aromatic_ring close_aromatic_ring close_aromatic_ring close_aromatic_ring

>  <prot_clashes>  (153) 
1

>  <NBS phar>  (153) 
0.2

>  <NBS_non-phar>  (153) 
0.6078669230143229

>  <NBS>  (153) 
0.807866923014323

>  <source_stage>  (153) 
scored

>  <source_iter>  (153) 
12

>  <source_parent_mol>  (153) 
3

>  <source_scenario>  (153) 
1 1 2 0 0 0 0 7 4 1 0 3

>  <source_rank_in_scored_call>  (153) 
0

>  <source_current_task>  (153) 
close_aromatic_ring

>  <scenario>  (153) 
1 1 2 0 0 0 0 7 4 1 0

>  <current_task>  (153) 
no_task

$$$$

     RDKit          3D

 15 17  0  0  0  0  0  0  0  0999 V2000
  -27.8779   -7.5815  -31.1793 C   0  0  0  0  0  0  0  0  0  0  0  0
  -27.5855   -6.6352  -32.0772 N   0  0  0  0  0  0  0  0  0  0  0  0
  -27.7543   -8.9219  -31.2047 N   0  0  0  0  0  0  0  0  0  0  0  0
  -27.7958   -5.3090  -31.8400 C   0  0  0  0  0  0  0  0  0  0  0  0
  -28.3299   -4.9112  -30.6330 C   0  0  0  0  0  0  0  0  0  0  0  0
  -28.6380   -5.8933  -29.6902 C   0  0  0  0  0  0  0  0  0  0  0  0
  -28.4146   -7.2391  -29.9548 C   0  0  0  0  0  0  0  0  0  0  0  0
  -28.2005   -9.4396  -30.0231 C   0  0  0  0  0  0  0  0  0  0  0  0
  -28.6205   -8.3878  -29.2244 C   0  0  0  0  0  0  0  0  0  0  0  0
  -28.2300  -10.8013  -29.6780 C   0  0  0  0  0  0  0  0  0  0  0  0
  -28.6600  -11.2986  -28.5033 N   0  0  0  0  0  0  0  0  0  0  0  0
  -27.7529  -11.7049  -30.6351 C   0  0  0  0  0  0  0  0  0  0  0  0
  -28.6611  -12.6068  -28.1892 C   0  0  0  0  0  0  0  0  0  0  0  0
  -27.7303  -13.0770  -30.3641 C   0  0  0  0  0  0  0  0  0  0  0  0
  -28.1908  -13.5252  -29.1262 C   0  0  0  0  0  0  0  0  0  0  0  0
  1  2  2  0
  1  3  1  0
  2  4  1  0
  4  5  2  0
  5  6  1  0
  6  7  2  0
  1  7  1  0
  3  8  1  0
  8  9  2  0
  7  9  1  0
  8 10  1  0
 10 11  2  0
 10 12  1  0
 11 13  1  0
 12 14  2  0
 13 15  2  0
 14 15  1  0
M  END
>  <name>  (154) 
Car Nac Nd0 Car Car Car Car Car Car Car Nac Car Car Car Car

>  <indices>  (154) 
[0, 1, 2]

>  <tasks>  (154) 
probe_placing close_aromatic_ring close_aromatic_ring close_aromatic_ring close_aromatic_ring ring_built build_to_Nd0 close_aromatic_ring no_task close_aromatic_ring close_aromatic_ring close_aromatic_ring close_aromatic_ring

>  <prot_clashes>  (154) 
1

>  <NBS phar>  (154) 
0.2

>  <NBS_non-phar>  (154) 
0.5712575912475586

>  <NBS>  (154) 
0.7712575912475585

>  <source_stage>  (154) 
scored

>  <source_iter>  (154) 
12

>  <source_parent_mol>  (154) 
3

>  <source_scenario>  (154) 
1 1 2 0 0 0 0 7 4 1 0 3

>  <source_rank_in_scored_call>  (154) 
1

>  <source_current_task>  (154) 
close_aromatic_ring

>  <scenario>  (154) 
1 1 2 0 0 0 0 7 4 1 0

>  <current_task>  (154) 
no_task

$$$$

     RDKit          3D

 15 17  0  0  0  0  0  0  0  0999 V2000
  -27.9660   -7.1820  -31.9100 C   0  0  0  0  0  0  0  0  0  0  0  0
  -27.4350   -6.1370  -32.5540 N   0  0  0  0  0  0  0  0  0  0  0  0
  -27.9000   -8.5080  -32.1300 N   0  0  0  0  0  0  0  0  0  0  0  0
  -27.6340   -4.8500  -32.1510 C   0  0  0  0  0  0  0  0  0  0  0  0
  -28.4080   -4.5970  -31.0380 C   0  0  0  0  0  0  0  0  0  0  0  0
  -28.9640   -5.6830  -30.3600 C   0  0  0  0  0  0  0  0  0  0  0  0
  -28.7480   -6.9870  -30.7900 C   0  0  0  0  0  0  0  0  0  0  0  0
  -28.6240   -9.1620  -31.1750 C   0  0  0  0  0  0  0  0  0  0  0  0
  -29.1640   -8.2130  -30.3210 C   0  0  0  0  0  0  0  0  0  0  0  0
  -28.7340  -10.6460  -31.0440 C   0  0  0  0  0  0  0  0  0  0  0  0
  -29.5160  -11.2630  -30.1200 N   0  0  0  0  0  0  0  0  0  0  0  0
  -28.1420  -11.3660  -32.0660 C   0  0  0  0  0  0  0  0  0  0  0  0
  -29.7410  -12.5870  -30.1680 C   0  0  0  0  0  0  0  0  0  0  0  0
  -28.3470  -12.7260  -32.1520 C   0  0  0  0  0  0  0  0  0  0  0  0
  -29.1490  -13.3010  -31.1890 C   0  0  0  0  0  0  0  0  0  0  0  0
  1  2  2  0
  1  3  1  0
  1  7  1  0
  2  4  1  0
  3  8  1  0
  4  5  2  0
  5  6  1  0
  6  7  2  0
  7  9  1  0
  8 10  1  0
  8  9  2  0
 10 12  1  0
 10 11  2  0
 11 13  1  0
 12 14  2  0
 13 15  2  0
 14 15  1  0
M  END
>  <name>  (155) 
Car Nac Nd0 Car Car Car Car Car Car Car Nac Car Car Car Car

>  <indices>  (155) 
[0, 1, 2]

>  <tasks>  (155) 
probe_placing close_aromatic_ring close_aromatic_ring close_aromatic_ring close_aromatic_ring ring_built build_to_Nd0 close_aromatic_ring no_task close_aromatic_ring close_aromatic_ring close_aromatic_ring close_aromatic_ring

>  <prot_clashes>  (155) 
1

>  <NBS phar>  (155) 
0.12

>  <NBS_non-phar>  (155) 
0.545421854654948

>  <NBS>  (155) 
0.665421854654948

>  <source_stage>  (155) 
scored

>  <source_iter>  (155) 
12

>  <source_parent_mol>  (155) 
3

>  <source_scenario>  (155) 
1 1 2 0 0 0 0 7 4 1 0 3

>  <source_rank_in_scored_call>  (155) 
3

>  <source_current_task>  (155) 
close_aromatic_ring

>  <scenario>  (155) 
1 1 2 0 0 0 0 7 4 1 0

>  <current_task>  (155) 
no_task

$$$$

     RDKit          3D

 15 17  0  0  0  0  0  0  0  0999 V2000
  -28.0800   -7.3330  -31.9850 C   0  0  0  0  0  0  0  0  0  0  0  0
  -27.5770   -6.2880  -32.6500 N   0  0  0  0  0  0  0  0  0  0  0  0
  -28.0550   -8.6570  -32.2290 N   0  0  0  0  0  0  0  0  0  0  0  0
  -27.7220   -5.0030  -32.2160 C   0  0  0  0  0  0  0  0  0  0  0  0
  -28.4110   -4.7550  -31.0480 C   0  0  0  0  0  0  0  0  0  0  0  0
  -28.9390   -5.8410  -30.3480 C   0  0  0  0  0  0  0  0  0  0  0  0
  -28.7790   -7.1410  -30.8110 C   0  0  0  0  0  0  0  0  0  0  0  0
  -28.7230   -9.3120  -31.2340 C   0  0  0  0  0  0  0  0  0  0  0  0
  -29.1840   -8.3670  -30.3320 C   0  0  0  0  0  0  0  0  0  0  0  0
  -28.9100  -10.7010  -31.1430 C   0  0  0  0  0  0  0  0  0  0  0  0
  -29.5590  -11.3370  -30.1490 N   0  0  0  0  0  0  0  0  0  0  0  0
  -28.3550  -11.4810  -32.1650 C   0  0  0  0  0  0  0  0  0  0  0  0
  -29.7090  -12.6720  -30.0740 C   0  0  0  0  0  0  0  0  0  0  0  0
  -28.4790  -12.8740  -32.1400 C   0  0  0  0  0  0  0  0  0  0  0  0
  -29.1650  -13.4680  -31.0810 C   0  0  0  0  0  0  0  0  0  0  0  0
  1  2  2  0
  1  3  1  0
  1  7  1  0
  2  4  1  0
  3  8  1  0
  4  5  2  0
  5  6  1  0
  6  7  2  0
  7  9  1  0
  8 10  1  0
  8  9  2  0
 10 12  1  0
 10 11  2  0
 11 13  1  0
 12 14  2  0
 13 15  2  0
 14 15  1  0
M  END
>  <name>  (156) 
Car Nac Nd0 Car Car Car Car Car Car Car Nac Car Car Car Car

>  <indices>  (156) 
[0, 1, 2]

>  <tasks>  (156) 
probe_placing close_aromatic_ring close_aromatic_ring close_aromatic_ring close_aromatic_ring ring_built build_to_Nd0 close_aromatic_ring no_task close_aromatic_ring close_aromatic_ring close_aromatic_ring close_aromatic_ring

>  <prot_clashes>  (156) 
1

>  <NBS phar>  (156) 
0.13999999999999999

>  <NBS_non-phar>  (156) 
0.4901787757873535

>  <NBS>  (156) 
0.6301787757873535

>  <source_stage>  (156) 
scored

>  <source_iter>  (156) 
12

>  <source_parent_mol>  (156) 
3

>  <source_scenario>  (156) 
1 1 2 0 0 0 0 7 4 1 0 3

>  <source_rank_in_scored_call>  (156) 
4

>  <source_current_task>  (156) 
close_aromatic_ring

>  <scenario>  (156) 
1 1 2 0 0 0 0 7 4 1 0

>  <current_task>  (156) 
no_task

$$$$

     RDKit          3D

 15 17  0  0  0  0  0  0  0  0999 V2000
  -27.8779   -7.5815  -31.1793 C   0  0  0  0  0  0  0  0  0  0  0  0
  -27.5855   -6.6352  -32.0772 N   0  0  0  0  0  0  0  0  0  0  0  0
  -27.7543   -8.9219  -31.2047 N   0  0  0  0  0  0  0  0  0  0  0  0
  -27.7958   -5.3090  -31.8400 C   0  0  0  0  0  0  0  0  0  0  0  0
  -28.3299   -4.9112  -30.6330 C   0  0  0  0  0  0  0  0  0  0  0  0
  -28.6380   -5.8933  -29.6902 C   0  0  0  0  0  0  0  0  0  0  0  0
  -28.4146   -7.2391  -29.9548 C   0  0  0  0  0  0  0  0  0  0  0  0
  -28.2005   -9.4396  -30.0231 C   0  0  0  0  0  0  0  0  0  0  0  0
  -28.6205   -8.3878  -29.2244 C   0  0  0  0  0  0  0  0  0  0  0  0
  -28.2168  -10.8473  -29.7152 C   0  0  0  0  0  0  0  0  0  0  0  0
  -28.6915  -11.2723  -28.5077 N   0  0  0  0  0  0  0  0  0  0  0  0
  -27.7263  -11.7283  -30.6565 C   0  0  0  0  0  0  0  0  0  0  0  0
  -27.7076  -13.0905  -30.3841 C   0  0  0  0  0  0  0  0  0  0  0  0
  -28.1938  -13.5310  -29.1460 C   0  0  0  0  0  0  0  0  0  0  0  0
  -28.6713  -12.6024  -28.2461 C   0  0  0  0  0  0  0  0  0  0  0  0
  1  2  2  0
  1  3  1  0
  2  4  1  0
  4  5  2  0
  5  6  1  0
  6  7  2  0
  1  7  1  0
  3  8  1  0
  8  9  2  0
  7  9  1  0
  8 10  1  0
 10 11  2  0
 10 12  1  0
 12 13  2  0
 13 14  1  0
 11 15  1  0
 14 15  2  0
M  END
>  <name>  (157) 
Car Nac Nd0 Car Car Car Car Car Car Car Nac Car Car Car Car

>  <indices>  (157) 
[0, 1, 2]

>  <tasks>  (157) 
probe_placing close_aromatic_ring close_aromatic_ring close_aromatic_ring close_aromatic_ring ring_built build_to_Nd0 close_aromatic_ring no_task close_aromatic_ring close_aromatic_ring close_aromatic_ring close_aromatic_ring

>  <prot_clashes>  (157) 
1

>  <NBS phar>  (157) 
0.2

>  <NBS_non-phar>  (157) 
0.5933005650838216

>  <NBS>  (157) 
0.7933005650838216

>  <source_stage>  (157) 
scored

>  <source_iter>  (157) 
12

>  <source_parent_mol>  (157) 
0

>  <source_scenario>  (157) 
1 1 2 0 0 0 0 7 4 1 3 0

>  <source_rank_in_scored_call>  (157) 
0

>  <source_current_task>  (157) 
close_aromatic_ring

>  <scenario>  (157) 
1 1 2 0 0 0 0 7 4 1 3

>  <current_task>  (157) 
no_task

$$$$

     RDKit          3D

 15 17  0  0  0  0  0  0  0  0999 V2000
  -28.0960   -7.3190  -32.1400 C   0  0  0  0  0  0  0  0  0  0  0  0
  -27.6020   -6.3000  -32.8520 N   0  0  0  0  0  0  0  0  0  0  0  0
  -28.0640   -8.6520  -32.3290 N   0  0  0  0  0  0  0  0  0  0  0  0
  -27.7530   -4.9990  -32.4710 C   0  0  0  0  0  0  0  0  0  0  0  0
  -28.4360   -4.7060  -31.3100 C   0  0  0  0  0  0  0  0  0  0  0  0
  -28.9530   -5.7640  -30.5610 C   0  0  0  0  0  0  0  0  0  0  0  0
  -28.7880   -7.0820  -30.9710 C   0  0  0  0  0  0  0  0  0  0  0  0
  -28.7230   -9.2680  -31.3030 C   0  0  0  0  0  0  0  0  0  0  0  0
  -29.1840   -8.2890  -30.4380 C   0  0  0  0  0  0  0  0  0  0  0  0
  -28.8850  -10.6950  -31.1930 C   0  0  0  0  0  0  0  0  0  0  0  0
  -29.5690  -11.2200  -30.1340 N   0  0  0  0  0  0  0  0  0  0  0  0
  -28.3190  -11.4950  -32.1650 C   0  0  0  0  0  0  0  0  0  0  0  0
  -28.4400  -12.8770  -32.0780 C   0  0  0  0  0  0  0  0  0  0  0  0
  -29.1400  -13.4200  -30.9930 C   0  0  0  0  0  0  0  0  0  0  0  0
  -29.6820  -12.5690  -30.0530 C   0  0  0  0  0  0  0  0  0  0  0  0
  1  2  2  0
  1  3  1  0
  1  7  1  0
  2  4  1  0
  3  8  1  0
  4  5  2  0
  5  6  1  0
  6  7  2  0
  7  9  1  0
  8 10  1  0
  8  9  2  0
 10 12  1  0
 10 11  2  0
 11 15  1  0
 12 13  2  0
 13 14  1  0
 14 15  2  0
M  END
>  <name>  (158) 
Car Nac Nd0 Car Car Car Car Car Car Car Nac Car Car Car Car

>  <indices>  (158) 
[0, 1, 2]

>  <tasks>  (158) 
probe_placing close_aromatic_ring close_aromatic_ring close_aromatic_ring close_aromatic_ring ring_built build_to_Nd0 close_aromatic_ring no_task close_aromatic_ring close_aromatic_ring close_aromatic_ring close_aromatic_ring

>  <prot_clashes>  (158) 
3

>  <NBS phar>  (158) 
0.13999999999999999

>  <NBS_non-phar>  (158) 
0.43783334096272786

>  <NBS>  (158) 
0.5778333409627279

>  <source_stage>  (158) 
scored

>  <source_iter>  (158) 
12

>  <source_parent_mol>  (158) 
0

>  <source_scenario>  (158) 
1 1 2 0 0 0 0 7 4 1 3 0

>  <source_rank_in_scored_call>  (158) 
2

>  <source_current_task>  (158) 
close_aromatic_ring

>  <scenario>  (158) 
1 1 2 0 0 0 0 7 4 1 3

>  <current_task>  (158) 
no_task

$$$$

     RDKit          3D

 16 18  0  0  0  0  0  0  0  0999 V2000
  -27.8779   -7.5815  -31.1793 C   0  0  0  0  0  0  0  0  0  0  0  0
  -27.5855   -6.6352  -32.0772 N   0  0  0  0  0  0  0  0  0  0  0  0
  -27.7543   -8.9219  -31.2047 N   0  0  0  0  0  0  0  0  0  0  0  0
  -27.7958   -5.3090  -31.8400 C   0  0  0  0  0  0  0  0  0  0  0  0
  -28.3299   -4.9112  -30.6330 C   0  0  0  0  0  0  0  0  0  0  0  0
  -28.6380   -5.8933  -29.6902 C   0  0  0  0  0  0  0  0  0  0  0  0
  -28.4146   -7.2391  -29.9548 C   0  0  0  0  0  0  0  0  0  0  0  0
  -28.2005   -9.4396  -30.0231 C   0  0  0  0  0  0  0  0  0  0  0  0
  -28.6205   -8.3878  -29.2244 C   0  0  0  0  0  0  0  0  0  0  0  0
  -28.2170  -10.8600  -29.4918 C   0  0  0  0  0  0  0  0  0  0  0  0
  -29.2780  -11.6725  -30.1189 C   0  0  0  0  0  0  0  0  0  0  0  0
  -29.3681  -12.9584  -29.4778 N   0  0  0  0  0  0  0  0  0  0  0  0
  -28.5527  -13.3816  -28.3983 C   0  0  0  0  0  0  0  0  0  0  0  0
  -27.6241  -12.5834  -27.8992 C   0  0  0  0  0  0  0  0  0  0  0  0
  -27.4604  -11.2601  -28.4859 C   0  0  0  0  0  0  0  0  0  0  0  0
  -29.9927  -11.2991  -31.0666 O   0  0  0  0  0  0  0  0  0  0  0  0
  1  2  2  0
  1  3  1  0
  2  4  1  0
  4  5  2  0
  5  6  1  0
  6  7  2  0
  1  7  1  0
  3  8  1  0
  8  9  2  0
  7  9  1  0
  8 10  1  0
 10 11  1  0
 11 12  1  0
 12 13  1  0
 13 14  2  0
 10 15  2  0
 14 15  1  0
 11 16  2  0
M  END
>  <name>  (159) 
Car Nac Nd0 Car Car Car Car Car Car Car Car Nd0 Car Car Car .=O

>  <indices>  (159) 
[0, 1, 2]

>  <tasks>  (159) 
probe_placing close_aromatic_ring close_aromatic_ring close_aromatic_ring close_aromatic_ring ring_built build_to_Nd0 close_aromatic_ring no_task close_aromatic_ring close_aromatic_ring close_aromatic_ring close_aromatic_ring close_aromatic_ring

>  <prot_clashes>  (159) 
0

>  <NBS phar>  (159) 
0.32

>  <NBS_non-phar>  (159) 
0.7023217678070068

>  <NBS>  (159) 
1.022321767807007

>  <source_stage>  (159) 
scored

>  <source_iter>  (159) 
13

>  <source_parent_mol>  (159) 
0

>  <source_scenario>  (159) 
1 1 2 0 0 0 0 9 0 2 1 0 0

>  <source_rank_in_scored_call>  (159) 
0

>  <source_current_task>  (159) 
fix_Car

>  <scenario>  (159) 
1 1 2 0 0 0 0 9 0 2 1 0

>  <current_task>  (159) 
no_task

$$$$

     RDKit          3D

 14 16  0  0  0  0  0  0  0  0999 V2000
  -27.8779   -7.5815  -31.1793 C   0  0  0  0  0  0  0  0  0  0  0  0
  -27.5855   -6.6352  -32.0772 N   0  0  0  0  0  0  0  0  0  0  0  0
  -27.7543   -8.9219  -31.2047 N   0  0  0  0  0  0  0  0  0  0  0  0
  -27.7958   -5.3090  -31.8400 C   0  0  0  0  0  0  0  0  0  0  0  0
  -28.3299   -4.9112  -30.6330 C   0  0  0  0  0  0  0  0  0  0  0  0
  -28.6380   -5.8933  -29.6902 C   0  0  0  0  0  0  0  0  0  0  0  0
  -28.4146   -7.2391  -29.9548 C   0  0  0  0  0  0  0  0  0  0  0  0
  -28.2005   -9.4396  -30.0231 C   0  0  0  0  0  0  0  0  0  0  0  0
  -28.6205   -8.3878  -29.2244 C   0  0  0  0  0  0  0  0  0  0  0  0
  -28.3211  -10.7670  -29.4813 C   0  0  0  0  0  0  0  0  0  0  0  0
  -29.1810  -11.7239  -29.9901 C   0  0  0  0  0  0  0  0  0  0  0  0
  -27.6720  -11.2569  -28.3930 C   0  0  0  0  0  0  0  0  0  0  0  0
  -29.0304  -12.8270  -29.1627 C   0  0  0  0  0  0  0  0  0  0  0  0
  -28.1157  -12.5139  -28.2120 N   0  0  0  0  0  0  0  0  0  0  0  0
  1  2  2  0
  1  3  1  0
  2  4  1  0
  4  5  2  0
  5  6  1  0
  6  7  2  0
  1  7  1  0
  3  8  1  0
  8  9  2  0
  7  9  1  0
  8 10  1  0
 10 11  1  0
 10 12  2  0
 11 13  2  0
 12 14  1  0
 13 14  1  0
M  END
>  <name>  (160) 
Car Nac Nd0 Car Car Car Car Car Car Car Car Car Car Nd0

>  <indices>  (160) 
[0, 1, 2]

>  <tasks>  (160) 
probe_placing close_aromatic_ring close_aromatic_ring close_aromatic_ring close_aromatic_ring ring_built build_to_Nd0 close_aromatic_ring no_task close_aromatic_ring close_aromatic_ring close_aromatic_ring

>  <prot_clashes>  (160) 
0

>  <NBS phar>  (160) 
0.22000000000000003

>  <NBS_non-phar>  (160) 
0.6802036421639579

>  <NBS>  (160) 
0.9002036421639579

>  <source_stage>  (160) 
scored

>  <source_iter>  (160) 
11

>  <source_parent_mol>  (160) 
3

>  <source_scenario>  (160) 
1 1 2 0 0 0 0 9 0 3 3

>  <source_rank_in_scored_call>  (160) 
1

>  <source_current_task>  (160) 
close_aromatic_ring

>  <scenario>  (160) 
1 1 2 0 0 0 0 9 0 3

>  <current_task>  (160) 
no_task

$$$$

     RDKit          3D

 14 16  0  0  0  0  0  0  0  0999 V2000
  -27.8350   -7.1800  -31.7570 C   0  0  0  0  0  0  0  0  0  0  0  0
  -27.3090   -6.2170  -32.5210 N   0  0  0  0  0  0  0  0  0  0  0  0
  -27.7690   -8.5230  -31.8220 N   0  0  0  0  0  0  0  0  0  0  0  0
  -27.5060   -4.8910  -32.2690 C   0  0  0  0  0  0  0  0  0  0  0  0
  -28.2740   -4.5120  -31.1880 C   0  0  0  0  0  0  0  0  0  0  0  0
  -28.8260   -5.5120  -30.3850 C   0  0  0  0  0  0  0  0  0  0  0  0
  -28.6110   -6.8560  -30.6630 C   0  0  0  0  0  0  0  0  0  0  0  0
  -28.4880   -9.0620  -30.7930 C   0  0  0  0  0  0  0  0  0  0  0  0
  -29.0240   -8.0200  -30.0530 C   0  0  0  0  0  0  0  0  0  0  0  0
  -28.7840  -10.4000  -30.3580 C   0  0  0  0  0  0  0  0  0  0  0  0
  -29.5530  -11.2870  -31.0890 C   0  0  0  0  0  0  0  0  0  0  0  0
  -28.4120  -10.9670  -29.1810 C   0  0  0  0  0  0  0  0  0  0  0  0
  -29.6380  -12.4290  -30.3050 C   0  0  0  0  0  0  0  0  0  0  0  0
  -28.9420  -12.2040  -29.1640 N   0  0  0  0  0  0  0  0  0  0  0  0
  1  2  2  0
  1  3  1  0
  1  7  1  0
  2  4  1  0
  3  8  1  0
  4  5  2  0
  5  6  1  0
  6  7  2  0
  7  9  1  0
  8 10  1  0
  8  9  2  0
 10 11  1  0
 10 12  2  0
 11 13  2  0
 12 14  1  0
 13 14  1  0
M  END
>  <name>  (161) 
Car Nac Nd0 Car Car Car Car Car Car Car Car Car Car Nd0

>  <indices>  (161) 
[0, 1, 2]

>  <tasks>  (161) 
probe_placing close_aromatic_ring close_aromatic_ring close_aromatic_ring close_aromatic_ring ring_built build_to_Nd0 close_aromatic_ring no_task close_aromatic_ring close_aromatic_ring close_aromatic_ring

>  <prot_clashes>  (161) 
1

>  <NBS phar>  (161) 
0.1

>  <NBS_non-phar>  (161) 
0.6228256906781878

>  <NBS>  (161) 
0.7228256906781878

>  <source_stage>  (161) 
scored

>  <source_iter>  (161) 
11

>  <source_parent_mol>  (161) 
3

>  <source_scenario>  (161) 
1 1 2 0 0 0 0 9 0 3 3

>  <source_rank_in_scored_call>  (161) 
2

>  <source_current_task>  (161) 
close_aromatic_ring

>  <scenario>  (161) 
1 1 2 0 0 0 0 9 0 3

>  <current_task>  (161) 
no_task

$$$$

     RDKit          3D

 14 16  0  0  0  0  0  0  0  0999 V2000
  -28.0020   -6.7900  -32.0970 C   0  0  0  0  0  0  0  0  0  0  0  0
  -27.5630   -5.8030  -32.8860 N   0  0  0  0  0  0  0  0  0  0  0  0
  -28.0630   -8.1230  -32.2660 N   0  0  0  0  0  0  0  0  0  0  0  0
  -27.5940   -4.4930  -32.5100 C   0  0  0  0  0  0  0  0  0  0  0  0
  -28.0920   -4.1550  -31.2690 C   0  0  0  0  0  0  0  0  0  0  0  0
  -28.5500   -5.1780  -30.4390 C   0  0  0  0  0  0  0  0  0  0  0  0
  -28.5100   -6.5060  -30.8460 C   0  0  0  0  0  0  0  0  0  0  0  0
  -28.6010   -8.6960  -31.1490 C   0  0  0  0  0  0  0  0  0  0  0  0
  -28.8860   -7.6870  -30.2440 C   0  0  0  0  0  0  0  0  0  0  0  0
  -28.9010   -9.9980  -30.7640 C   0  0  0  0  0  0  0  0  0  0  0  0
  -29.8700  -10.8220  -31.3460 C   0  0  0  0  0  0  0  0  0  0  0  0
  -28.3620  -10.7250  -29.7260 C   0  0  0  0  0  0  0  0  0  0  0  0
  -28.9470  -11.9360  -29.6470 N   0  0  0  0  0  0  0  0  0  0  0  0
  -29.8810  -12.0160  -30.6380 C   0  0  0  0  0  0  0  0  0  0  0  0
  1  2  2  0
  1  3  1  0
  1  7  1  0
  2  4  1  0
  3  8  1  0
  4  5  2  0
  5  6  1  0
  6  7  2  0
  7  9  1  0
  8 10  1  0
  8  9  2  0
 10 11  1  0
 10 12  2  0
 11 14  2  0
 12 13  1  0
 13 14  1  0
M  END
>  <name>  (162) 
Car Nac Nd0 Car Car Car Car Car Car Car Car Car Nd0 Car

>  <indices>  (162) 
[0, 1, 2]

>  <tasks>  (162) 
probe_placing close_aromatic_ring close_aromatic_ring close_aromatic_ring close_aromatic_ring ring_built build_to_Nd0 close_aromatic_ring no_task close_aromatic_ring close_aromatic_ring close_aromatic_ring

>  <prot_clashes>  (162) 
3

>  <NBS phar>  (162) 
0.12

>  <NBS_non-phar>  (162) 
0.5583376884460449

>  <NBS>  (162) 
0.6783376884460449

>  <source_stage>  (162) 
scored

>  <source_iter>  (162) 
11

>  <source_parent_mol>  (162) 
5

>  <source_scenario>  (162) 
1 1 2 0 0 0 0 9 0 3 5

>  <source_rank_in_scored_call>  (162) 
1

>  <source_current_task>  (162) 
close_aromatic_ring

>  <scenario>  (162) 
1 1 2 0 0 0 0 9 0 3

>  <current_task>  (162) 
no_task

$$$$

     RDKit          3D

 14 16  0  0  0  0  0  0  0  0999 V2000
  -27.9130   -6.7630  -32.0740 C   0  0  0  0  0  0  0  0  0  0  0  0
  -27.3340   -5.7700  -32.7580 N   0  0  0  0  0  0  0  0  0  0  0  0
  -27.9770   -8.0900  -32.2880 N   0  0  0  0  0  0  0  0  0  0  0  0
  -27.3940   -4.4690  -32.3550 C   0  0  0  0  0  0  0  0  0  0  0  0
  -28.0720   -4.1470  -31.1980 C   0  0  0  0  0  0  0  0  0  0  0  0
  -28.6780   -5.1770  -30.4780 C   0  0  0  0  0  0  0  0  0  0  0  0
  -28.6040   -6.4960  -30.9100 C   0  0  0  0  0  0  0  0  0  0  0  0
  -28.6960   -8.6750  -31.2840 C   0  0  0  0  0  0  0  0  0  0  0  0
  -29.0960   -7.6800  -30.4070 C   0  0  0  0  0  0  0  0  0  0  0  0
  -29.0809   -9.9768  -30.9873 C   0  0  0  0  0  0  0  0  0  0  0  0
  -29.9647  -10.7613  -31.7352 C   0  0  0  0  0  0  0  0  0  0  0  0
  -28.7283  -10.7433  -29.8978 C   0  0  0  0  0  0  0  0  0  0  0  0
  -29.3446  -11.9391  -29.9440 N   0  0  0  0  0  0  0  0  0  0  0  0
  -30.1136  -11.9713  -31.0714 C   0  0  0  0  0  0  0  0  0  0  0  0
  1  2  2  0
  1  3  1  0
  1  7  1  0
  2  4  1  0
  3  8  1  0
  4  5  2  0
  5  6  1  0
  6  7  2  0
  7  9  1  0
  8 10  1  0
  8  9  2  0
 10 11  1  0
 10 12  2  0
 12 13  1  0
 13 14  1  0
 11 14  2  0
M  END
>  <name>  (163) 
Car Nac Nd0 Car Car Car Car Car Car Car Car Car Nd0 Car

>  <indices>  (163) 
[0, 1, 2]

>  <tasks>  (163) 
probe_placing close_aromatic_ring close_aromatic_ring close_aromatic_ring close_aromatic_ring ring_built build_to_Nd0 close_aromatic_ring no_task close_aromatic_ring close_aromatic_ring close_aromatic_ring

>  <prot_clashes>  (163) 
6

>  <NBS phar>  (163) 
0.1

>  <NBS_non-phar>  (163) 
0.5325805800301688

>  <NBS>  (163) 
0.6325805800301688

>  <source_stage>  (163) 
scored

>  <source_iter>  (163) 
11

>  <source_parent_mol>  (163) 
5

>  <source_scenario>  (163) 
1 1 2 0 0 0 0 9 0 3 5

>  <source_rank_in_scored_call>  (163) 
2

>  <source_current_task>  (163) 
close_aromatic_ring

>  <scenario>  (163) 
1 1 2 0 0 0 0 9 0 3

>  <current_task>  (163) 
no_task

$$$$

     RDKit          3D

 15 17  0  0  0  0  0  0  0  0999 V2000
  -27.8779   -7.5815  -31.1793 C   0  0  0  0  0  0  0  0  0  0  0  0
  -27.5855   -6.6352  -32.0772 N   0  0  0  0  0  0  0  0  0  0  0  0
  -27.7543   -8.9219  -31.2047 N   0  0  0  0  0  0  0  0  0  0  0  0
  -27.7958   -5.3090  -31.8400 C   0  0  0  0  0  0  0  0  0  0  0  0
  -28.3299   -4.9112  -30.6330 C   0  0  0  0  0  0  0  0  0  0  0  0
  -28.6380   -5.8933  -29.6902 C   0  0  0  0  0  0  0  0  0  0  0  0
  -28.4146   -7.2391  -29.9548 C   0  0  0  0  0  0  0  0  0  0  0  0
  -28.2005   -9.4396  -30.0231 C   0  0  0  0  0  0  0  0  0  0  0  0
  -28.6205   -8.3878  -29.2244 C   0  0  0  0  0  0  0  0  0  0  0  0
  -28.3305  -10.7859  -29.4874 C   0  0  0  0  0  0  0  0  0  0  0  0
  -27.7142  -11.2530  -28.3206 C   0  0  0  0  0  0  0  0  0  0  0  0
  -27.8451  -12.5951  -27.9453 C   0  0  0  0  0  0  0  0  0  0  0  0
  -28.5995  -13.4488  -28.7574 C   0  0  0  0  0  0  0  0  0  0  0  0
  -29.0699  -11.6968  -30.2512 C   0  0  0  0  0  0  0  0  0  0  0  0
  -29.1845  -12.9825  -29.8749 N   0  0  0  0  0  0  0  0  0  0  0  0
  1  2  2  0
  1  3  1  0
  2  4  1  0
  4  5  2  0
  5  6  1  0
  6  7  2  0
  1  7  1  0
  3  8  1  0
  8  9  2  0
  7  9  1  0
  8 10  1  0
 10 11  2  0
 11 12  1  0
 12 13  2  0
 10 14  1  0
 14 15  2  0
 13 15  1  0
M  END
>  <name>  (164) 
Car Nac Nd0 Car Car Car Car Car Car Car Car Car Car Car Nac

>  <indices>  (164) 
[0, 1, 2]

>  <tasks>  (164) 
probe_placing close_aromatic_ring close_aromatic_ring close_aromatic_ring close_aromatic_ring ring_built build_to_Nd0 close_aromatic_ring no_task close_aromatic_ring close_aromatic_ring close_aromatic_ring close_aromatic_ring

>  <prot_clashes>  (164) 
0

>  <NBS phar>  (164) 
0.2

>  <NBS_non-phar>  (164) 
0.7152758916219075

>  <NBS>  (164) 
0.9152758916219075

>  <source_stage>  (164) 
scored

>  <source_iter>  (164) 
12

>  <source_parent_mol>  (164) 
0

>  <source_scenario>  (164) 
1 1 2 0 0 0 0 9 1 1 3 0

>  <source_rank_in_scored_call>  (164) 
0

>  <source_current_task>  (164) 
close_aromatic_ring

>  <scenario>  (164) 
1 1 2 0 0 0 0 9 1 1 3

>  <current_task>  (164) 
no_task

$$$$

     RDKit          3D

 15 17  0  0  0  0  0  0  0  0999 V2000
  -27.6360   -7.4510  -31.5580 C   0  0  0  0  0  0  0  0  0  0  0  0
  -27.3090   -6.5750  -32.5140 N   0  0  0  0  0  0  0  0  0  0  0  0
  -27.3390   -8.7520  -31.3840 N   0  0  0  0  0  0  0  0  0  0  0  0
  -27.7270   -5.2770  -32.4940 C   0  0  0  0  0  0  0  0  0  0  0  0
  -28.5170   -4.8340  -31.4550 C   0  0  0  0  0  0  0  0  0  0  0  0
  -28.8620   -5.7420  -30.4530 C   0  0  0  0  0  0  0  0  0  0  0  0
  -28.4250   -7.0610  -30.4950 C   0  0  0  0  0  0  0  0  0  0  0  0
  -27.9220   -9.1990  -30.2330 C   0  0  0  0  0  0  0  0  0  0  0  0
  -28.6090   -8.1400  -29.6610 C   0  0  0  0  0  0  0  0  0  0  0  0
  -27.9730  -10.4830  -29.5510 C   0  0  0  0  0  0  0  0  0  0  0  0
  -27.5230  -10.7220  -28.2480 C   0  0  0  0  0  0  0  0  0  0  0  0
  -27.5460  -12.0200  -27.7230 C   0  0  0  0  0  0  0  0  0  0  0  0
  -28.0260  -13.0600  -28.5260 C   0  0  0  0  0  0  0  0  0  0  0  0
  -28.4390  -11.5720  -30.2970 C   0  0  0  0  0  0  0  0  0  0  0  0
  -28.4540  -12.8100  -29.7760 N   0  0  0  0  0  0  0  0  0  0  0  0
  1  2  2  0
  1  3  1  0
  1  7  1  0
  2  4  1  0
  3  8  1  0
  4  5  2  0
  5  6  1  0
  6  7  2  0
  7  9  1  0
  8  9  2  0
  8 10  1  0
 10 14  1  0
 10 11  2  0
 11 12  1  0
 12 13  2  0
 13 15  1  0
 14 15  2  0
M  END
>  <name>  (165) 
Car Nac Nd0 Car Car Car Car Car Car Car Car Car Car Car Nac

>  <indices>  (165) 
[0, 1, 2]

>  <tasks>  (165) 
probe_placing close_aromatic_ring close_aromatic_ring close_aromatic_ring close_aromatic_ring ring_built build_to_Nd0 close_aromatic_ring no_task close_aromatic_ring close_aromatic_ring close_aromatic_ring close_aromatic_ring

>  <prot_clashes>  (165) 
2

>  <NBS phar>  (165) 
0.2

>  <NBS_non-phar>  (165) 
0.651654052734375

>  <NBS>  (165) 
0.851654052734375

>  <source_stage>  (165) 
scored

>  <source_iter>  (165) 
12

>  <source_parent_mol>  (165) 
0

>  <source_scenario>  (165) 
1 1 2 0 0 0 0 9 1 1 3 0

>  <source_rank_in_scored_call>  (165) 
2

>  <source_current_task>  (165) 
close_aromatic_ring

>  <scenario>  (165) 
1 1 2 0 0 0 0 9 1 1 3

>  <current_task>  (165) 
no_task

$$$$

     RDKit          3D

 15 17  0  0  0  0  0  0  0  0999 V2000
  -27.8779   -7.5815  -31.1793 C   0  0  0  0  0  0  0  0  0  0  0  0
  -27.5855   -6.6352  -32.0772 N   0  0  0  0  0  0  0  0  0  0  0  0
  -27.7543   -8.9219  -31.2047 N   0  0  0  0  0  0  0  0  0  0  0  0
  -27.7958   -5.3090  -31.8400 C   0  0  0  0  0  0  0  0  0  0  0  0
  -28.3299   -4.9112  -30.6330 C   0  0  0  0  0  0  0  0  0  0  0  0
  -28.6380   -5.8933  -29.6902 C   0  0  0  0  0  0  0  0  0  0  0  0
  -28.4146   -7.2391  -29.9548 C   0  0  0  0  0  0  0  0  0  0  0  0
  -28.2005   -9.4396  -30.0231 C   0  0  0  0  0  0  0  0  0  0  0  0
  -28.6205   -8.3878  -29.2244 C   0  0  0  0  0  0  0  0  0  0  0  0
  -28.3561  -10.8617  -29.4522 C   0  0  0  0  0  0  0  0  0  0  0  0
  -27.6419  -11.2940  -28.3529 C   0  0  0  0  0  0  0  0  0  0  0  0
  -27.8259  -12.6042  -27.9170 C   0  0  0  0  0  0  0  0  0  0  0  0
  -28.6979  -13.4254  -28.5767 C   0  0  0  0  0  0  0  0  0  0  0  0
  -29.3742  -12.9573  -29.6473 N   0  0  0  0  0  0  0  0  0  0  0  0
  -29.2344  -11.6991  -30.1116 C   0  0  0  0  0  0  0  0  0  0  0  0
  1  2  2  0
  1  3  1  0
  2  4  1  0
  4  5  2  0
  5  6  1  0
  6  7  2  0
  1  7  1  0
  3  8  1  0
  8  9  2  0
  7  9  1  0
  8 10  1  0
 10 11  2  0
 11 12  1  0
 12 13  2  0
 13 14  1  0
 14 15  2  0
 10 15  1  0
M  END
>  <name>  (166) 
Car Nac Nd0 Car Car Car Car Car Car Car Car Car Car Nac Car

>  <indices>  (166) 
[0, 1, 2]

>  <tasks>  (166) 
probe_placing close_aromatic_ring close_aromatic_ring close_aromatic_ring close_aromatic_ring ring_built build_to_Nd0 close_aromatic_ring no_task close_aromatic_ring close_aromatic_ring close_aromatic_ring close_aromatic_ring

>  <prot_clashes>  (166) 
0

>  <NBS phar>  (166) 
0.22000000000000003

>  <NBS_non-phar>  (166) 
0.6268449147542318

>  <NBS>  (166) 
0.8468449147542318

>  <source_stage>  (166) 
scored

>  <source_iter>  (166) 
12

>  <source_parent_mol>  (166) 
3

>  <source_scenario>  (166) 
1 1 2 0 0 0 0 9 1 1 3 3

>  <source_rank_in_scored_call>  (166) 
0

>  <source_current_task>  (166) 
close_aromatic_ring

>  <scenario>  (166) 
1 1 2 0 0 0 0 9 1 1 3

>  <current_task>  (166) 
no_task

$$$$

     RDKit          3D

 15 17  0  0  0  0  0  0  0  0999 V2000
  -28.0690   -7.1310  -32.0500 C   0  0  0  0  0  0  0  0  0  0  0  0
  -27.6400   -6.1730  -32.8780 N   0  0  0  0  0  0  0  0  0  0  0  0
  -28.1090   -8.4720  -32.1620 N   0  0  0  0  0  0  0  0  0  0  0  0
  -27.6940   -4.8490  -32.5580 C   0  0  0  0  0  0  0  0  0  0  0  0
  -28.2060   -4.4650  -31.3370 C   0  0  0  0  0  0  0  0  0  0  0  0
  -28.6560   -5.4590  -30.4660 C   0  0  0  0  0  0  0  0  0  0  0  0
  -28.5920   -6.8030  -30.8160 C   0  0  0  0  0  0  0  0  0  0  0  0
  -28.6470   -9.0050  -31.0250 C   0  0  0  0  0  0  0  0  0  0  0  0
  -28.9550   -7.9620  -30.1660 C   0  0  0  0  0  0  0  0  0  0  0  0
  -28.9890  -10.4300  -30.5530 C   0  0  0  0  0  0  0  0  0  0  0  0
  -28.3620  -11.0160  -29.4720 C   0  0  0  0  0  0  0  0  0  0  0  0
  -28.7150  -12.3180  -29.1270 C   0  0  0  0  0  0  0  0  0  0  0  0
  -29.6630  -12.9820  -29.8550 C   0  0  0  0  0  0  0  0  0  0  0  0
  -30.2490  -12.3670  -30.9040 N   0  0  0  0  0  0  0  0  0  0  0  0
  -29.9450  -11.1090  -31.2820 C   0  0  0  0  0  0  0  0  0  0  0  0
  1  2  2  0
  1  3  1  0
  1  7  1  0
  2  4  1  0
  3  8  1  0
  4  5  2  0
  5  6  1  0
  6  7  2  0
  7  9  1  0
  8 10  1  0
  8  9  2  0
 10 15  1  0
 10 11  2  0
 11 12  1  0
 12 13  2  0
 13 14  1  0
 14 15  2  0
M  END
>  <name>  (167) 
Car Nac Nd0 Car Car Car Car Car Car Car Car Car Car Nac Car

>  <indices>  (167) 
[0, 1, 2]

>  <tasks>  (167) 
probe_placing close_aromatic_ring close_aromatic_ring close_aromatic_ring close_aromatic_ring ring_built build_to_Nd0 close_aromatic_ring no_task close_aromatic_ring close_aromatic_ring close_aromatic_ring close_aromatic_ring

>  <prot_clashes>  (167) 
0

>  <NBS phar>  (167) 
0.12

>  <NBS_non-phar>  (167) 
0.5529998143513998

>  <NBS>  (167) 
0.6729998143513998

>  <source_stage>  (167) 
scored

>  <source_iter>  (167) 
12

>  <source_parent_mol>  (167) 
3

>  <source_scenario>  (167) 
1 1 2 0 0 0 0 9 1 1 3 3

>  <source_rank_in_scored_call>  (167) 
3

>  <source_current_task>  (167) 
close_aromatic_ring

>  <scenario>  (167) 
1 1 2 0 0 0 0 9 1 1 3

>  <current_task>  (167) 
no_task

$$$$

     RDKit          3D

 14 16  0  0  0  0  0  0  0  0999 V2000
  -27.8779   -7.5815  -31.1793 C   0  0  0  0  0  0  0  0  0  0  0  0
  -27.5855   -6.6352  -32.0772 N   0  0  0  0  0  0  0  0  0  0  0  0
  -27.7543   -8.9219  -31.2047 N   0  0  0  0  0  0  0  0  0  0  0  0
  -27.7958   -5.3090  -31.8400 C   0  0  0  0  0  0  0  0  0  0  0  0
  -28.3299   -4.9112  -30.6330 C   0  0  0  0  0  0  0  0  0  0  0  0
  -28.6380   -5.8933  -29.6902 C   0  0  0  0  0  0  0  0  0  0  0  0
  -28.4146   -7.2391  -29.9548 C   0  0  0  0  0  0  0  0  0  0  0  0
  -28.2005   -9.4396  -30.0231 C   0  0  0  0  0  0  0  0  0  0  0  0
  -28.6205   -8.3878  -29.2244 C   0  0  0  0  0  0  0  0  0  0  0  0
  -28.2979  -10.6950  -29.4661 C   0  0  0  0  0  0  0  0  0  0  0  0
  -27.9458  -11.8006  -30.1485 N   0  0  0  0  0  0  0  0  0  0  0  0
  -28.2273  -12.8565  -29.3518 C   0  0  0  0  0  0  0  0  0  0  0  0
  -28.7470  -12.4157  -28.1902 N   0  0  0  0  0  0  0  0  0  0  0  0
  -28.8008  -11.0779  -28.2372 C   0  0  0  0  0  0  0  0  0  0  0  0
  1  2  2  0
  1  3  1  0
  2  4  1  0
  4  5  2  0
  5  6  1  0
  6  7  2  0
  1  7  1  0
  3  8  1  0
  8  9  2  0
  7  9  1  0
  8 10  1  0
 10 11  1  0
 11 12  2  0
 12 13  1  0
 10 14  2  0
 13 14  1  0
M  END
>  <name>  (168) 
Car Nac Nd0 Car Car Car Car Car Car Car Nac Car Nd0 Car

>  <indices>  (168) 
[0, 1, 2]

>  <tasks>  (168) 
probe_placing close_aromatic_ring close_aromatic_ring close_aromatic_ring close_aromatic_ring ring_built build_to_Nd0 close_aromatic_ring no_task close_aromatic_ring close_aromatic_ring close_aromatic_ring

>  <prot_clashes>  (168) 
0

>  <NBS phar>  (168) 
0.2

>  <NBS_non-phar>  (168) 
0.7026369912283761

>  <NBS>  (168) 
0.902636991228376

>  <source_stage>  (168) 
scored

>  <source_iter>  (168) 
11

>  <source_parent_mol>  (168) 
0

>  <source_scenario>  (168) 
1 1 2 0 0 0 0 9 2 1 0

>  <source_rank_in_scored_call>  (168) 
0

>  <source_current_task>  (168) 
close_aromatic_ring

>  <scenario>  (168) 
1 1 2 0 0 0 0 9 2 1

>  <current_task>  (168) 
no_task

$$$$

     RDKit          3D

 14 16  0  0  0  0  0  0  0  0999 V2000
  -27.6760   -7.3730  -31.9220 C   0  0  0  0  0  0  0  0  0  0  0  0
  -27.2990   -6.2330  -32.5120 N   0  0  0  0  0  0  0  0  0  0  0  0
  -27.3320   -8.6570  -32.1330 N   0  0  0  0  0  0  0  0  0  0  0  0
  -27.7830   -5.0160  -32.1330 C   0  0  0  0  0  0  0  0  0  0  0  0
  -28.6970   -4.9380  -31.1040 C   0  0  0  0  0  0  0  0  0  0  0  0
  -29.0950   -6.1230  -30.4820 C   0  0  0  0  0  0  0  0  0  0  0  0
  -28.5880   -7.3530  -30.8870 C   0  0  0  0  0  0  0  0  0  0  0  0
  -28.0050   -9.4550  -31.2530 C   0  0  0  0  0  0  0  0  0  0  0  0
  -28.8010   -8.6440  -30.4600 C   0  0  0  0  0  0  0  0  0  0  0  0
  -28.0500  -10.8020  -30.9730 C   0  0  0  0  0  0  0  0  0  0  0  0
  -27.3410  -11.6970  -31.6870 N   0  0  0  0  0  0  0  0  0  0  0  0
  -27.6600  -12.9200  -31.2070 C   0  0  0  0  0  0  0  0  0  0  0  0
  -28.5550  -12.7900  -30.2080 N   0  0  0  0  0  0  0  0  0  0  0  0
  -28.8120  -11.4850  -30.0440 C   0  0  0  0  0  0  0  0  0  0  0  0
  1  2  2  0
  1  3  1  0
  1  7  1  0
  2  4  1  0
  3  8  1  0
  4  5  2  0
  5  6  1  0
  6  7  2  0
  7  9  1  0
  8 10  1  0
  8  9  2  0
 10 11  1  0
 10 14  2  0
 11 12  2  0
 12 13  1  0
 13 14  1  0
M  END
>  <name>  (169) 
Car Nac Nd0 Car Car Car Car Car Car Car Nac Car Nd0 Car

>  <indices>  (169) 
[0, 1, 2]

>  <tasks>  (169) 
probe_placing close_aromatic_ring close_aromatic_ring close_aromatic_ring close_aromatic_ring ring_built build_to_Nd0 close_aromatic_ring no_task close_aromatic_ring close_aromatic_ring close_aromatic_ring

>  <prot_clashes>  (169) 
4

>  <NBS phar>  (169) 
0.1

>  <NBS_non-phar>  (169) 
0.49337765148707796

>  <NBS>  (169) 
0.593377651487078

>  <source_stage>  (169) 
scored

>  <source_iter>  (169) 
11

>  <source_parent_mol>  (169) 
0

>  <source_scenario>  (169) 
1 1 2 0 0 0 0 9 2 1 0

>  <source_rank_in_scored_call>  (169) 
1

>  <source_current_task>  (169) 
close_aromatic_ring

>  <scenario>  (169) 
1 1 2 0 0 0 0 9 2 1

>  <current_task>  (169) 
no_task

$$$$

     RDKit          3D

 14 16  0  0  0  0  0  0  0  0999 V2000
  -27.8779   -7.5815  -31.1793 C   0  0  0  0  0  0  0  0  0  0  0  0
  -27.5855   -6.6352  -32.0772 N   0  0  0  0  0  0  0  0  0  0  0  0
  -27.7543   -8.9219  -31.2047 N   0  0  0  0  0  0  0  0  0  0  0  0
  -27.7958   -5.3090  -31.8400 C   0  0  0  0  0  0  0  0  0  0  0  0
  -28.3299   -4.9112  -30.6330 C   0  0  0  0  0  0  0  0  0  0  0  0
  -28.6380   -5.8933  -29.6902 C   0  0  0  0  0  0  0  0  0  0  0  0
  -28.4146   -7.2391  -29.9548 C   0  0  0  0  0  0  0  0  0  0  0  0
  -28.2005   -9.4396  -30.0231 C   0  0  0  0  0  0  0  0  0  0  0  0
  -28.6205   -8.3878  -29.2244 C   0  0  0  0  0  0  0  0  0  0  0  0
  -28.3464  -10.6904  -29.4719 C   0  0  0  0  0  0  0  0  0  0  0  0
  -27.9827  -11.8597  -30.0270 N   0  0  0  0  0  0  0  0  0  0  0  0
  -28.2584  -12.8981  -29.2197 C   0  0  0  0  0  0  0  0  0  0  0  0
  -28.8848  -11.0454  -28.2314 C   0  0  0  0  0  0  0  0  0  0  0  0
  -28.8176  -12.3995  -28.1055 N   0  0  0  0  0  0  0  0  0  0  0  0
  1  2  2  0
  1  3  1  0
  2  4  1  0
  4  5  2  0
  5  6  1  0
  6  7  2  0
  1  7  1  0
  3  8  1  0
  8  9  2  0
  7  9  1  0
  8 10  1  0
 10 11  1  0
 11 12  2  0
 10 13  2  0
 13 14  1  0
 12 14  1  0
M  END
>  <name>  (170) 
Car Nac Nd0 Car Car Car Car Car Car Car Nac Car Car Nd0

>  <indices>  (170) 
[0, 1, 2]

>  <tasks>  (170) 
probe_placing close_aromatic_ring close_aromatic_ring close_aromatic_ring close_aromatic_ring ring_built build_to_Nd0 close_aromatic_ring no_task close_aromatic_ring close_aromatic_ring close_aromatic_ring

>  <prot_clashes>  (170) 
0

>  <NBS phar>  (170) 
0.2

>  <NBS_non-phar>  (170) 
0.7041335787091937

>  <NBS>  (170) 
0.9041335787091938

>  <source_stage>  (170) 
scored

>  <source_iter>  (170) 
11

>  <source_parent_mol>  (170) 
1

>  <source_scenario>  (170) 
1 1 2 0 0 0 0 9 2 1 1

>  <source_rank_in_scored_call>  (170) 
0

>  <source_current_task>  (170) 
close_aromatic_ring

>  <scenario>  (170) 
1 1 2 0 0 0 0 9 2 1

>  <current_task>  (170) 
no_task

$$$$

     RDKit          3D

 14 16  0  0  0  0  0  0  0  0999 V2000
  -27.6870   -7.3670  -31.9370 C   0  0  0  0  0  0  0  0  0  0  0  0
  -27.3230   -6.2190  -32.5190 N   0  0  0  0  0  0  0  0  0  0  0  0
  -27.3060   -8.6430  -32.1370 N   0  0  0  0  0  0  0  0  0  0  0  0
  -27.8470   -5.0140  -32.1540 C   0  0  0  0  0  0  0  0  0  0  0  0
  -28.7880   -4.9580  -31.1490 C   0  0  0  0  0  0  0  0  0  0  0  0
  -29.1730   -6.1520  -30.5360 C   0  0  0  0  0  0  0  0  0  0  0  0
  -28.6260   -7.3690  -30.9260 C   0  0  0  0  0  0  0  0  0  0  0  0
  -27.9830   -9.4570  -31.2740 C   0  0  0  0  0  0  0  0  0  0  0  0
  -28.8190   -8.6650  -30.5030 C   0  0  0  0  0  0  0  0  0  0  0  0
  -28.0450  -10.8040  -31.0140 C   0  0  0  0  0  0  0  0  0  0  0  0
  -27.3130  -11.7700  -31.5980 N   0  0  0  0  0  0  0  0  0  0  0  0
  -27.6150  -12.9840  -31.1090 C   0  0  0  0  0  0  0  0  0  0  0  0
  -28.8570  -11.4850  -30.1010 C   0  0  0  0  0  0  0  0  0  0  0  0
  -28.5730  -12.8140  -30.1820 N   0  0  0  0  0  0  0  0  0  0  0  0
  1  2  2  0
  1  3  1  0
  1  7  1  0
  2  4  1  0
  3  8  1  0
  4  5  2  0
  5  6  1  0
  6  7  2  0
  7  9  1  0
  8 10  1  0
  8  9  2  0
 10 11  1  0
 10 13  2  0
 11 12  2  0
 12 14  1  0
 13 14  1  0
M  END
>  <name>  (171) 
Car Nac Nd0 Car Car Car Car Car Car Car Nac Car Car Nd0

>  <indices>  (171) 
[0, 1, 2]

>  <tasks>  (171) 
probe_placing close_aromatic_ring close_aromatic_ring close_aromatic_ring close_aromatic_ring ring_built build_to_Nd0 close_aromatic_ring no_task close_aromatic_ring close_aromatic_ring close_aromatic_ring

>  <prot_clashes>  (171) 
5

>  <NBS phar>  (171) 
0.1

>  <NBS_non-phar>  (171) 
0.5095347676958356

>  <NBS>  (171) 
0.6095347676958356

>  <source_stage>  (171) 
scored

>  <source_iter>  (171) 
11

>  <source_parent_mol>  (171) 
1

>  <source_scenario>  (171) 
1 1 2 0 0 0 0 9 2 1 1

>  <source_rank_in_scored_call>  (171) 
1

>  <source_current_task>  (171) 
close_aromatic_ring

>  <scenario>  (171) 
1 1 2 0 0 0 0 9 2 1

>  <current_task>  (171) 
no_task

$$$$

     RDKit          3D

 15 17  0  0  0  0  0  0  0  0999 V2000
  -28.1220   -7.0890  -32.2820 C   0  0  0  0  0  0  0  0  0  0  0  0
  -27.6880   -5.9710  -32.8740 N   0  0  0  0  0  0  0  0  0  0  0  0
  -28.1210   -8.3770  -32.6720 N   0  0  0  0  0  0  0  0  0  0  0  0
  -27.7870   -4.7450  -32.2860 C   0  0  0  0  0  0  0  0  0  0  0  0
  -28.3540   -4.6340  -31.0340 C   0  0  0  0  0  0  0  0  0  0  0  0
  -28.8070   -5.7970  -30.4090 C   0  0  0  0  0  0  0  0  0  0  0  0
  -28.6960   -7.0360  -31.0290 C   0  0  0  0  0  0  0  0  0  0  0  0
  -28.6850   -9.1460  -31.6940 C   0  0  0  0  0  0  0  0  0  0  0  0
  -29.0510   -8.3110  -30.6500 C   0  0  0  0  0  0  0  0  0  0  0  0
  -28.9650  -10.5770  -31.5230 C   0  0  0  0  0  0  0  0  0  0  0  0
  -28.6140  -11.4190  -32.5160 N   0  0  0  0  0  0  0  0  0  0  0  0
  -29.6000  -11.0840  -30.4000 C   0  0  0  0  0  0  0  0  0  0  0  0
  -29.8750  -12.4330  -30.2920 C   0  0  0  0  0  0  0  0  0  0  0  0
  -28.8720  -12.7460  -32.4370 C   0  0  0  0  0  0  0  0  0  0  0  0
  -29.5080  -13.2960  -31.3270 C   0  0  0  0  0  0  0  0  0  0  0  0
  1  2  2  0
  1  3  1  0
  1  7  1  0
  2  4  1  0
  3  8  1  0
  4  5  2  0
  5  6  1  0
  6  7  2  0
  7  9  1  0
  8 10  1  0
  8  9  2  0
 10 11  2  0
 10 12  1  0
 11 14  1  0
 12 13  2  0
 13 15  1  0
 14 15  2  0
M  END
>  <name>  (172) 
Car Nac Nd0 Car Car Car Car Car Car Car Nac Car Car Car Car

>  <indices>  (172) 
[0, 1, 2]

>  <tasks>  (172) 
probe_placing close_aromatic_ring close_aromatic_ring close_aromatic_ring close_aromatic_ring ring_built build_to_Nd0 close_aromatic_ring no_task close_aromatic_ring close_aromatic_ring close_aromatic_ring close_aromatic_ring

>  <prot_clashes>  (172) 
3

>  <NBS phar>  (172) 
0.13999999999999999

>  <NBS_non-phar>  (172) 
0.4316852569580078

>  <NBS>  (172) 
0.5716852569580078

>  <source_stage>  (172) 
scored

>  <source_iter>  (172) 
12

>  <source_parent_mol>  (172) 
0

>  <source_scenario>  (172) 
1 1 2 0 0 0 0 9 3 1 1 0

>  <source_rank_in_scored_call>  (172) 
0

>  <source_current_task>  (172) 
close_aromatic_ring

>  <scenario>  (172) 
1 1 2 0 0 0 0 9 3 1 1

>  <current_task>  (172) 
no_task

$$$$

     RDKit          3D

 15 17  0  0  0  0  0  0  0  0999 V2000
  -28.1640   -7.0950  -32.1790 C   0  0  0  0  0  0  0  0  0  0  0  0
  -27.6630   -6.0000  -32.7600 N   0  0  0  0  0  0  0  0  0  0  0  0
  -28.2540   -8.3750  -32.5880 N   0  0  0  0  0  0  0  0  0  0  0  0
  -27.6730   -4.7790  -32.1540 C   0  0  0  0  0  0  0  0  0  0  0  0
  -28.2180   -4.6490  -30.8940 C   0  0  0  0  0  0  0  0  0  0  0  0
  -28.7420   -5.7890  -30.2800 C   0  0  0  0  0  0  0  0  0  0  0  0
  -28.7200   -7.0230  -30.9190 C   0  0  0  0  0  0  0  0  0  0  0  0
  -28.8580   -9.1190  -31.6140 C   0  0  0  0  0  0  0  0  0  0  0  0
  -29.1560   -8.2770  -30.5540 C   0  0  0  0  0  0  0  0  0  0  0  0
  -29.2309  -10.5295  -31.4600 C   0  0  0  0  0  0  0  0  0  0  0  0
  -28.9482  -11.3785  -32.4693 N   0  0  0  0  0  0  0  0  0  0  0  0
  -29.8873  -11.0096  -30.3385 C   0  0  0  0  0  0  0  0  0  0  0  0
  -30.2514  -12.3392  -30.2462 C   0  0  0  0  0  0  0  0  0  0  0  0
  -29.2932  -12.6872  -32.4060 C   0  0  0  0  0  0  0  0  0  0  0  0
  -29.9533  -13.2091  -31.2975 C   0  0  0  0  0  0  0  0  0  0  0  0
  1  2  2  0
  1  3  1  0
  1  7  1  0
  2  4  1  0
  3  8  1  0
  4  5  2  0
  5  6  1  0
  6  7  2  0
  7  9  1  0
  8 10  1  0
  8  9  2  0
 10 11  2  0
 10 12  1  0
 11 14  1  0
 12 13  2  0
 14 15  2  0
 13 15  1  0
M  END
>  <name>  (173) 
Car Nac Nd0 Car Car Car Car Car Car Car Nac Car Car Car Car

>  <indices>  (173) 
[0, 1, 2]

>  <tasks>  (173) 
probe_placing close_aromatic_ring close_aromatic_ring close_aromatic_ring close_aromatic_ring ring_built build_to_Nd0 close_aromatic_ring no_task close_aromatic_ring close_aromatic_ring close_aromatic_ring close_aromatic_ring

>  <prot_clashes>  (173) 
7

>  <NBS phar>  (173) 
0.1

>  <NBS_non-phar>  (173) 
0.4347701072692871

>  <NBS>  (173) 
0.5347701072692871

>  <source_stage>  (173) 
scored

>  <source_iter>  (173) 
12

>  <source_parent_mol>  (173) 
0

>  <source_scenario>  (173) 
1 1 2 0 0 0 0 9 3 1 1 0

>  <source_rank_in_scored_call>  (173) 
1

>  <source_current_task>  (173) 
close_aromatic_ring

>  <scenario>  (173) 
1 1 2 0 0 0 0 9 3 1 1

>  <current_task>  (173) 
no_task

$$$$

     RDKit          3D

 15 17  0  0  0  0  0  0  0  0999 V2000
  -28.1480   -7.0210  -32.2930 C   0  0  0  0  0  0  0  0  0  0  0  0
  -27.6830   -5.9190  -32.8900 N   0  0  0  0  0  0  0  0  0  0  0  0
  -28.2560   -8.2970  -32.7070 N   0  0  0  0  0  0  0  0  0  0  0  0
  -27.6670   -4.7030  -32.2730 C   0  0  0  0  0  0  0  0  0  0  0  0
  -28.1430   -4.5870  -30.9850 C   0  0  0  0  0  0  0  0  0  0  0  0
  -28.6290   -5.7340  -30.3540 C   0  0  0  0  0  0  0  0  0  0  0  0
  -28.6370   -6.9620  -31.0040 C   0  0  0  0  0  0  0  0  0  0  0  0
  -28.8030   -9.0520  -31.7100 C   0  0  0  0  0  0  0  0  0  0  0  0
  -29.0480   -8.2210  -30.6270 C   0  0  0  0  0  0  0  0  0  0  0  0
  -29.1710  -10.4380  -31.5170 C   0  0  0  0  0  0  0  0  0  0  0  0
  -28.6880  -11.2800  -32.4620 N   0  0  0  0  0  0  0  0  0  0  0  0
  -29.8830  -10.9770  -30.4430 C   0  0  0  0  0  0  0  0  0  0  0  0
  -30.0910  -12.3330  -30.3450 C   0  0  0  0  0  0  0  0  0  0  0  0
  -29.5710  -13.1390  -31.3430 C   0  0  0  0  0  0  0  0  0  0  0  0
  -28.8650  -12.6010  -32.4070 C   0  0  0  0  0  0  0  0  0  0  0  0
  1  2  2  0
  1  3  1  0
  1  7  1  0
  2  4  1  0
  3  8  1  0
  4  5  2  0
  5  6  1  0
  6  7  2  0
  7  9  1  0
  8 10  1  0
  8  9  2  0
 10 11  2  0
 10 12  1  0
 11 15  1  0
 12 13  2  0
 13 14  1  0
 14 15  2  0
M  END
>  <name>  (174) 
Car Nac Nd0 Car Car Car Car Car Car Car Nac Car Car Car Car

>  <indices>  (174) 
[0, 1, 2]

>  <tasks>  (174) 
probe_placing close_aromatic_ring close_aromatic_ring close_aromatic_ring close_aromatic_ring ring_built build_to_Nd0 close_aromatic_ring no_task close_aromatic_ring close_aromatic_ring close_aromatic_ring close_aromatic_ring

>  <prot_clashes>  (174) 
5

>  <NBS phar>  (174) 
0.1

>  <NBS_non-phar>  (174) 
0.41124130884806315

>  <NBS>  (174) 
0.5112413088480632

>  <source_stage>  (174) 
scored

>  <source_iter>  (174) 
12

>  <source_parent_mol>  (174) 
2

>  <source_scenario>  (174) 
1 1 2 0 0 0 0 9 3 1 1 2

>  <source_rank_in_scored_call>  (174) 
0

>  <source_current_task>  (174) 
close_aromatic_ring

>  <scenario>  (174) 
1 1 2 0 0 0 0 9 3 1 1

>  <current_task>  (174) 
no_task

$$$$

     RDKit          3D

 18 20  0  0  0  0  0  0  0  0999 V2000
  -28.2840   -7.4030  -31.7720 C   0  0  0  0  0  0  0  0  0  0  0  0
  -27.6880   -6.6080  -32.6780 N   0  0  0  0  0  0  0  0  0  0  0  0
  -28.2660   -8.8070  -31.9430 N   0  0  0  0  0  0  0  0  0  0  0  0
  -27.5750   -5.2700  -32.5130 C   0  0  0  0  0  0  0  0  0  0  0  0
  -28.0970   -4.6990  -31.3620 C   0  0  0  0  0  0  0  0  0  0  0  0
  -28.7500   -5.5720  -30.3690 C   0  0  0  0  0  0  0  0  0  0  0  0
  -28.8030   -6.8810  -30.6410 N   0  0  0  0  0  0  0  0  0  0  0  0
  -29.1620   -4.7400  -29.3510 C   0  0  0  0  0  0  0  0  0  0  0  0
  -28.8130   -3.4600  -29.6550 N   0  0  0  0  0  0  0  0  0  0  0  0
  -28.1870   -3.4360  -30.8350 C   0  0  0  0  0  0  0  0  0  0  0  0
  -28.8020   -9.7350  -31.2140 C   0  0  0  0  0  0  0  0  0  0  0  0
  -29.5890   -9.5260  -30.2410 O   0  0  0  0  0  0  0  0  0  0  0  0
  -28.4847  -11.2422  -31.5293 C   0  0  0  0  0  0  0  0  0  0  0  0
  -28.0991  -11.5506  -32.8152 C   0  0  0  0  0  0  0  0  0  0  0  0
  -28.5799  -12.1847  -30.5204 C   0  0  0  0  0  0  0  0  0  0  0  0
  -28.2666  -13.4875  -30.8507 C   0  0  0  0  0  0  0  0  0  0  0  0
  -27.8784  -13.8344  -32.1205 C   0  0  0  0  0  0  0  0  0  0  0  0
  -27.7912  -12.8612  -33.1194 C   0  0  0  0  0  0  0  0  0  0  0  0
  1  2  2  0
  1  3  1  0
  1  7  1  0
  2  4  1  0
  3 11  1  0
  4  5  2  0
  5 10  1  0
  5  6  1  0
  6  7  1  0
  6  8  2  0
  8  9  1  0
  9 10  2  0
 11 13  1  0
 11 12  2  0
 13 14  2  0
 13 15  1  0
 15 16  2  0
 16 17  1  0
 14 18  1  0
 17 18  2  0
M  END
>  <name>  (175) 
Car Nac Nd0 Car Car Car Nd0 Car Nac Car Cs2 .=O Car Car Car Car Car Car

>  <indices>  (175) 
[0, 1, 2]

>  <tasks>  (175) 
probe_placing close_aromatic_ring close_aromatic_ring close_aromatic_ring close_aromatic_ring ring_built fix_Car close_aromatic_ring close_aromatic_ring build_to_Nd0 build_DB_to_Cs2 build_SB_to_Cs2 close_aromatic_ring close_aromatic_ring close_aromatic_ring close_aromatic_ring

>  <prot_clashes>  (175) 
2

>  <NBS phar>  (175) 
0.22000000000000003

>  <NBS_non-phar>  (175) 
0.4947032928466797

>  <NBS>  (175) 
0.7147032928466797

>  <source_stage>  (175) 
scored

>  <source_iter>  (175) 
15

>  <source_parent_mol>  (175) 
1

>  <source_scenario>  (175) 
1 1 2 0 5 4 0 2 0 0 0 1 0 0 1

>  <source_rank_in_scored_call>  (175) 
0

>  <source_current_task>  (175) 
close_aromatic_ring

>  <scenario>  (175) 
1 1 2 0 5 4 0 2 0 0 0 1 0 0

>  <current_task>  (175) 
no_task

$$$$

     RDKit          3D

 18 20  0  0  0  0  0  0  0  0999 V2000
  -28.3390   -7.3430  -31.8970 C   0  0  0  0  0  0  0  0  0  0  0  0
  -27.6890   -6.6080  -32.8160 N   0  0  0  0  0  0  0  0  0  0  0  0
  -28.4340   -8.7460  -32.0510 N   0  0  0  0  0  0  0  0  0  0  0  0
  -27.4690   -5.2820  -32.6690 C   0  0  0  0  0  0  0  0  0  0  0  0
  -27.9360   -4.6570  -31.5220 C   0  0  0  0  0  0  0  0  0  0  0  0
  -28.6490   -5.4640  -30.5140 C   0  0  0  0  0  0  0  0  0  0  0  0
  -28.8080   -6.7680  -30.7700 N   0  0  0  0  0  0  0  0  0  0  0  0
  -28.9870   -4.5900  -29.5040 C   0  0  0  0  0  0  0  0  0  0  0  0
  -28.5400   -3.3450  -29.8260 N   0  0  0  0  0  0  0  0  0  0  0  0
  -27.9220   -3.3850  -31.0100 C   0  0  0  0  0  0  0  0  0  0  0  0
  -29.0360   -9.6200  -31.3070 C   0  0  0  0  0  0  0  0  0  0  0  0
  -29.7970   -9.3370  -30.3320 O   0  0  0  0  0  0  0  0  0  0  0  0
  -28.8420  -11.1510  -31.6050 C   0  0  0  0  0  0  0  0  0  0  0  0
  -28.4900  -11.5050  -32.8890 C   0  0  0  0  0  0  0  0  0  0  0  0
  -29.0040  -12.0710  -30.5840 C   0  0  0  0  0  0  0  0  0  0  0  0
  -28.7970  -13.3990  -30.9000 C   0  0  0  0  0  0  0  0  0  0  0  0
  -28.4460  -13.7890  -32.1670 C   0  0  0  0  0  0  0  0  0  0  0  0
  -28.2890  -12.8380  -33.1790 C   0  0  0  0  0  0  0  0  0  0  0  0
  1  2  2  0
  1  3  1  0
  1  7  1  0
  2  4  1  0
  3 11  1  0
  4  5  2  0
  5 10  1  0
  5  6  1  0
  6  7  1  0
  6  8  2  0
  8  9  1  0
  9 10  2  0
 11 13  1  0
 11 12  2  0
 13 14  2  0
 13 15  1  0
 14 18  1  0
 15 16  2  0
 16 17  1  0
 17 18  2  0
M  END
>  <name>  (176) 
Car Nac Nd0 Car Car Car Nd0 Car Nac Car Cs2 .=O Car Car Car Car Car Car

>  <indices>  (176) 
[0, 1, 2]

>  <tasks>  (176) 
probe_placing close_aromatic_ring close_aromatic_ring close_aromatic_ring close_aromatic_ring ring_built fix_Car close_aromatic_ring close_aromatic_ring build_to_Nd0 build_DB_to_Cs2 build_SB_to_Cs2 close_aromatic_ring close_aromatic_ring close_aromatic_ring close_aromatic_ring

>  <prot_clashes>  (176) 
3

>  <NBS phar>  (176) 
0.13999999999999999

>  <NBS_non-phar>  (176) 
0.4809996287027995

>  <NBS>  (176) 
0.6209996287027995

>  <source_stage>  (176) 
scored

>  <source_iter>  (176) 
15

>  <source_parent_mol>  (176) 
1

>  <source_scenario>  (176) 
1 1 2 0 5 4 0 2 0 0 0 1 0 0 1

>  <source_rank_in_scored_call>  (176) 
1

>  <source_current_task>  (176) 
close_aromatic_ring

>  <scenario>  (176) 
1 1 2 0 5 4 0 2 0 0 0 1 0 0

>  <current_task>  (176) 
no_task

$$$$

     RDKit          3D

 18 20  0  0  0  0  0  0  0  0999 V2000
  -28.2800   -7.4110  -31.7830 C   0  0  0  0  0  0  0  0  0  0  0  0
  -27.6880   -6.6090  -32.6860 N   0  0  0  0  0  0  0  0  0  0  0  0
  -28.2520   -8.8150  -31.9590 N   0  0  0  0  0  0  0  0  0  0  0  0
  -27.5850   -5.2710  -32.5160 C   0  0  0  0  0  0  0  0  0  0  0  0
  -28.1130   -4.7080  -31.3630 C   0  0  0  0  0  0  0  0  0  0  0  0
  -28.7610   -5.5890  -30.3750 C   0  0  0  0  0  0  0  0  0  0  0  0
  -28.8040   -6.8970  -30.6510 N   0  0  0  0  0  0  0  0  0  0  0  0
  -29.1810   -4.7630  -29.3540 C   0  0  0  0  0  0  0  0  0  0  0  0
  -28.8400   -3.4800  -29.6530 N   0  0  0  0  0  0  0  0  0  0  0  0
  -28.2120   -3.4470  -30.8320 C   0  0  0  0  0  0  0  0  0  0  0  0
  -28.7820   -9.7490  -31.2350 C   0  0  0  0  0  0  0  0  0  0  0  0
  -29.5720   -9.5490  -30.2620 O   0  0  0  0  0  0  0  0  0  0  0  0
  -28.4596  -11.2192  -31.5549 C   0  0  0  0  0  0  0  0  0  0  0  0
  -28.0661  -11.5503  -32.8333 C   0  0  0  0  0  0  0  0  0  0  0  0
  -28.5376  -12.2086  -30.5681 C   0  0  0  0  0  0  0  0  0  0  0  0
  -28.2200  -13.5083  -30.8824 C   0  0  0  0  0  0  0  0  0  0  0  0
  -27.7478  -12.8707  -33.1357 C   0  0  0  0  0  0  0  0  0  0  0  0
  -27.8255  -13.8479  -32.1588 C   0  0  0  0  0  0  0  0  0  0  0  0
  1  2  2  0
  1  3  1  0
  1  7  1  0
  2  4  1  0
  3 11  1  0
  4  5  2  0
  5 10  1  0
  5  6  1  0
  6  7  1  0
  6  8  2  0
  8  9  1  0
  9 10  2  0
 11 13  1  0
 11 12  2  0
 13 14  2  0
 13 15  1  0
 15 16  2  0
 14 17  1  0
 16 18  1  0
 17 18  2  0
M  END
>  <name>  (177) 
Car Nac Nd0 Car Car Car Nd0 Car Nac Car Cs2 .=O Car Car Car Car Car Car

>  <indices>  (177) 
[0, 1, 2]

>  <tasks>  (177) 
probe_placing close_aromatic_ring close_aromatic_ring close_aromatic_ring close_aromatic_ring ring_built fix_Car close_aromatic_ring close_aromatic_ring build_to_Nd0 build_DB_to_Cs2 build_SB_to_Cs2 close_aromatic_ring close_aromatic_ring close_aromatic_ring close_aromatic_ring

>  <prot_clashes>  (177) 
2

>  <NBS phar>  (177) 
0.22000000000000003

>  <NBS_non-phar>  (177) 
0.4895668029785156

>  <NBS>  (177) 
0.7095668029785156

>  <source_stage>  (177) 
scored

>  <source_iter>  (177) 
15

>  <source_parent_mol>  (177) 
2

>  <source_scenario>  (177) 
1 1 2 0 5 4 0 2 0 0 0 1 0 0 2

>  <source_rank_in_scored_call>  (177) 
0

>  <source_current_task>  (177) 
close_aromatic_ring

>  <scenario>  (177) 
1 1 2 0 5 4 0 2 0 0 0 1 0 0

>  <current_task>  (177) 
no_task

$$$$

     RDKit          3D

 18 20  0  0  0  0  0  0  0  0999 V2000
  -28.3410   -7.3390  -31.9110 C   0  0  0  0  0  0  0  0  0  0  0  0
  -27.6910   -6.6090  -32.8350 N   0  0  0  0  0  0  0  0  0  0  0  0
  -28.4370   -8.7430  -32.0590 N   0  0  0  0  0  0  0  0  0  0  0  0
  -27.4700   -5.2820  -32.6930 C   0  0  0  0  0  0  0  0  0  0  0  0
  -27.9350   -4.6530  -31.5460 C   0  0  0  0  0  0  0  0  0  0  0  0
  -28.6460   -5.4550  -30.5350 C   0  0  0  0  0  0  0  0  0  0  0  0
  -28.8060   -6.7590  -30.7850 N   0  0  0  0  0  0  0  0  0  0  0  0
  -28.9820   -4.5770  -29.5270 C   0  0  0  0  0  0  0  0  0  0  0  0
  -28.5330   -3.3340  -29.8540 N   0  0  0  0  0  0  0  0  0  0  0  0
  -27.9180   -3.3780  -31.0390 C   0  0  0  0  0  0  0  0  0  0  0  0
  -29.0390   -9.6130  -31.3120 C   0  0  0  0  0  0  0  0  0  0  0  0
  -29.7980   -9.3260  -30.3360 O   0  0  0  0  0  0  0  0  0  0  0  0
  -28.8500  -11.1110  -31.6060 C   0  0  0  0  0  0  0  0  0  0  0  0
  -28.5000  -11.5000  -32.8810 C   0  0  0  0  0  0  0  0  0  0  0  0
  -29.0030  -12.0720  -30.5990 C   0  0  0  0  0  0  0  0  0  0  0  0
  -28.8030  -13.3990  -30.8900 C   0  0  0  0  0  0  0  0  0  0  0  0
  -28.3020  -12.8490  -33.1600 C   0  0  0  0  0  0  0  0  0  0  0  0
  -28.4540  -13.7970  -32.1640 C   0  0  0  0  0  0  0  0  0  0  0  0
  1  2  2  0
  1  3  1  0
  1  7  1  0
  2  4  1  0
  3 11  1  0
  4  5  2  0
  5 10  1  0
  5  6  1  0
  6  7  1  0
  6  8  2  0
  8  9  1  0
  9 10  2  0
 11 13  1  0
 11 12  2  0
 13 14  2  0
 13 15  1  0
 14 17  1  0
 15 16  2  0
 16 18  1  0
 17 18  2  0
M  END
>  <name>  (178) 
Car Nac Nd0 Car Car Car Nd0 Car Nac Car Cs2 .=O Car Car Car Car Car Car

>  <indices>  (178) 
[0, 1, 2]

>  <tasks>  (178) 
probe_placing close_aromatic_ring close_aromatic_ring close_aromatic_ring close_aromatic_ring ring_built fix_Car close_aromatic_ring close_aromatic_ring build_to_Nd0 build_DB_to_Cs2 build_SB_to_Cs2 close_aromatic_ring close_aromatic_ring close_aromatic_ring close_aromatic_ring

>  <prot_clashes>  (178) 
2

>  <NBS phar>  (178) 
0.13999999999999999

>  <NBS_non-phar>  (178) 
0.4833529260423448

>  <NBS>  (178) 
0.6233529260423448

>  <source_stage>  (178) 
scored

>  <source_iter>  (178) 
15

>  <source_parent_mol>  (178) 
2

>  <source_scenario>  (178) 
1 1 2 0 5 4 0 2 0 0 0 1 0 0 2

>  <source_rank_in_scored_call>  (178) 
1

>  <source_current_task>  (178) 
close_aromatic_ring

>  <scenario>  (178) 
1 1 2 0 5 4 0 2 0 0 0 1 0 0

>  <current_task>  (178) 
no_task

$$$$

     RDKit          3D

 18 20  0  0  0  0  0  0  0  0999 V2000
  -28.2800   -7.4110  -31.7830 C   0  0  0  0  0  0  0  0  0  0  0  0
  -27.6880   -6.6090  -32.6860 N   0  0  0  0  0  0  0  0  0  0  0  0
  -28.2520   -8.8150  -31.9590 N   0  0  0  0  0  0  0  0  0  0  0  0
  -27.5850   -5.2710  -32.5160 C   0  0  0  0  0  0  0  0  0  0  0  0
  -28.1130   -4.7080  -31.3630 C   0  0  0  0  0  0  0  0  0  0  0  0
  -28.7610   -5.5890  -30.3750 C   0  0  0  0  0  0  0  0  0  0  0  0
  -28.8040   -6.8970  -30.6510 N   0  0  0  0  0  0  0  0  0  0  0  0
  -29.1810   -4.7630  -29.3540 C   0  0  0  0  0  0  0  0  0  0  0  0
  -28.8400   -3.4800  -29.6530 N   0  0  0  0  0  0  0  0  0  0  0  0
  -28.2120   -3.4470  -30.8320 C   0  0  0  0  0  0  0  0  0  0  0  0
  -28.7820   -9.7490  -31.2350 C   0  0  0  0  0  0  0  0  0  0  0  0
  -29.5720   -9.5490  -30.2620 O   0  0  0  0  0  0  0  0  0  0  0  0
  -28.4602  -11.2019  -31.5386 C   0  0  0  0  0  0  0  0  0  0  0  0
  -28.0653  -11.5565  -32.8134 C   0  0  0  0  0  0  0  0  0  0  0  0
  -28.5447  -12.2203  -30.5822 C   0  0  0  0  0  0  0  0  0  0  0  0
  -27.7640  -12.8642  -33.1385 C   0  0  0  0  0  0  0  0  0  0  0  0
  -27.8444  -13.8755  -32.2020 C   0  0  0  0  0  0  0  0  0  0  0  0
  -28.2394  -13.5198  -30.9275 C   0  0  0  0  0  0  0  0  0  0  0  0
  1  2  2  0
  1  3  1  0
  1  7  1  0
  2  4  1  0
  3 11  1  0
  4  5  2  0
  5 10  1  0
  5  6  1  0
  6  7  1  0
  6  8  2  0
  8  9  1  0
  9 10  2  0
 11 13  1  0
 11 12  2  0
 13 14  2  0
 13 15  1  0
 14 16  1  0
 16 17  2  0
 15 18  2  0
 17 18  1  0
M  END
>  <name>  (179) 
Car Nac Nd0 Car Car Car Nd0 Car Nac Car Cs2 .=O Car Car Car Car Car Car

>  <indices>  (179) 
[0, 1, 2]

>  <tasks>  (179) 
probe_placing close_aromatic_ring close_aromatic_ring close_aromatic_ring close_aromatic_ring ring_built fix_Car close_aromatic_ring close_aromatic_ring build_to_Nd0 build_DB_to_Cs2 build_SB_to_Cs2 close_aromatic_ring close_aromatic_ring close_aromatic_ring close_aromatic_ring

>  <prot_clashes>  (179) 
2

>  <NBS phar>  (179) 
0.22000000000000003

>  <NBS_non-phar>  (179) 
0.48947805828518337

>  <NBS>  (179) 
0.7094780582851834

>  <source_stage>  (179) 
scored

>  <source_iter>  (179) 
15

>  <source_parent_mol>  (179) 
0

>  <source_scenario>  (179) 
1 1 2 0 5 4 0 2 0 0 0 1 0 1 0

>  <source_rank_in_scored_call>  (179) 
0

>  <source_current_task>  (179) 
close_aromatic_ring

>  <scenario>  (179) 
1 1 2 0 5 4 0 2 0 0 0 1 0 1

>  <current_task>  (179) 
no_task

$$$$

     RDKit          3D

 18 20  0  0  0  0  0  0  0  0999 V2000
  -28.3400   -7.3430  -31.9130 C   0  0  0  0  0  0  0  0  0  0  0  0
  -27.6910   -6.6080  -32.8330 N   0  0  0  0  0  0  0  0  0  0  0  0
  -28.4310   -8.7470  -32.0660 N   0  0  0  0  0  0  0  0  0  0  0  0
  -27.4750   -5.2800  -32.6870 C   0  0  0  0  0  0  0  0  0  0  0  0
  -27.9450   -4.6570  -31.5390 C   0  0  0  0  0  0  0  0  0  0  0  0
  -28.6560   -5.4640  -30.5320 C   0  0  0  0  0  0  0  0  0  0  0  0
  -28.8100   -6.7680  -30.7860 N   0  0  0  0  0  0  0  0  0  0  0  0
  -28.9970   -4.5900  -29.5220 C   0  0  0  0  0  0  0  0  0  0  0  0
  -28.5520   -3.3450  -29.8450 N   0  0  0  0  0  0  0  0  0  0  0  0
  -27.9340   -3.3830  -31.0290 C   0  0  0  0  0  0  0  0  0  0  0  0
  -29.0310   -9.6210  -31.3220 C   0  0  0  0  0  0  0  0  0  0  0  0
  -29.7930   -9.3400  -30.3470 O   0  0  0  0  0  0  0  0  0  0  0  0
  -28.8340  -11.1010  -31.6040 C   0  0  0  0  0  0  0  0  0  0  0  0
  -28.4810  -11.5070  -32.8750 C   0  0  0  0  0  0  0  0  0  0  0  0
  -28.9960  -12.0930  -30.6300 C   0  0  0  0  0  0  0  0  0  0  0  0
  -28.2930  -12.8410  -33.1810 C   0  0  0  0  0  0  0  0  0  0  0  0
  -28.4490  -13.8270  -32.2270 C   0  0  0  0  0  0  0  0  0  0  0  0
  -28.8020  -13.4190  -30.9550 C   0  0  0  0  0  0  0  0  0  0  0  0
  1  2  2  0
  1  3  1  0
  1  7  1  0
  2  4  1  0
  3 11  1  0
  4  5  2  0
  5 10  1  0
  5  6  1  0
  6  7  1  0
  6  8  2  0
  8  9  1  0
  9 10  2  0
 11 13  1  0
 11 12  2  0
 13 14  2  0
 13 15  1  0
 14 16  1  0
 15 18  2  0
 16 17  2  0
 17 18  1  0
M  END
>  <name>  (180) 
Car Nac Nd0 Car Car Car Nd0 Car Nac Car Cs2 .=O Car Car Car Car Car Car

>  <indices>  (180) 
[0, 1, 2]

>  <tasks>  (180) 
probe_placing close_aromatic_ring close_aromatic_ring close_aromatic_ring close_aromatic_ring ring_built fix_Car close_aromatic_ring close_aromatic_ring build_to_Nd0 build_DB_to_Cs2 build_SB_to_Cs2 close_aromatic_ring close_aromatic_ring close_aromatic_ring close_aromatic_ring

>  <prot_clashes>  (180) 
2

>  <NBS phar>  (180) 
0.13999999999999999

>  <NBS_non-phar>  (180) 
0.4902882046169705

>  <NBS>  (180) 
0.6302882046169704

>  <source_stage>  (180) 
scored

>  <source_iter>  (180) 
15

>  <source_parent_mol>  (180) 
0

>  <source_scenario>  (180) 
1 1 2 0 5 4 0 2 0 0 0 1 0 1 0

>  <source_rank_in_scored_call>  (180) 
1

>  <source_current_task>  (180) 
close_aromatic_ring

>  <scenario>  (180) 
1 1 2 0 5 4 0 2 0 0 0 1 0 1

>  <current_task>  (180) 
no_task

$$$$

     RDKit          3D

 18 20  0  0  0  0  0  0  0  0999 V2000
  -28.4360   -7.9780  -31.8630 C   0  0  0  0  0  0  0  0  0  0  0  0
  -28.0640   -7.1630  -32.8880 N   0  0  0  0  0  0  0  0  0  0  0  0
  -28.4390   -9.3790  -32.1390 N   0  0  0  0  0  0  0  0  0  0  0  0
  -27.9350   -5.8410  -32.7260 C   0  0  0  0  0  0  0  0  0  0  0  0
  -28.1910   -5.3030  -31.4730 C   0  0  0  0  0  0  0  0  0  0  0  0
  -28.5930   -6.1960  -30.3760 C   0  0  0  0  0  0  0  0  0  0  0  0
  -28.6970   -7.5090  -30.6330 N   0  0  0  0  0  0  0  0  0  0  0  0
  -28.7730   -5.3770  -29.2740 C   0  0  0  0  0  0  0  0  0  0  0  0
  -28.5070   -4.0700  -29.6480 C   0  0  0  0  0  0  0  0  0  0  0  0
  -28.1520   -4.0300  -30.9920 C   0  0  0  0  0  0  0  0  0  0  0  0
  -28.1360  -10.3580  -31.1820 C   0  0  0  0  0  0  0  0  0  0  0  0
  -27.9710  -10.1630  -29.9840 O   0  0  0  0  0  0  0  0  0  0  0  0
  -27.9950  -11.8140  -31.7060 C   0  0  0  0  0  0  0  0  0  0  0  0
  -27.4500  -12.7430  -30.9020 N   0  0  0  0  0  0  0  0  0  0  0  0
  -27.2920  -14.0260  -31.2660 C   0  0  0  0  0  0  0  0  0  0  0  0
  -28.4420  -12.1140  -32.9930 C   0  0  0  0  0  0  0  0  0  0  0  0
  -28.2920  -13.4410  -33.4000 C   0  0  0  0  0  0  0  0  0  0  0  0
  -27.7220  -14.3820  -32.5400 C   0  0  0  0  0  0  0  0  0  0  0  0
  1  2  2  0
  1  3  1  0
  1  7  1  0
  2  4  1  0
  3 11  1  0
  4  5  2  0
  5 10  1  0
  5  6  1  0
  6  7  1  0
  6  8  2  0
  8  9  1  0
  9 10  2  0
 11 13  1  0
 11 12  2  0
 13 16  1  0
 13 14  2  0
 14 15  1  0
 15 18  2  0
 16 17  2  0
 17 18  1  0
M  END
>  <name>  (181) 
Car Nac Nd0 Car Car Car Nd0 Car Car Car Cs2 .=O Car Nac Car Car Car Car

>  <indices>  (181) 
[0, 1, 2]

>  <tasks>  (181) 
probe_placing close_aromatic_ring close_aromatic_ring close_aromatic_ring close_aromatic_ring ring_built fix_Car close_aromatic_ring close_aromatic_ring build_to_Nd0 build_DB_to_Cs2 build_SB_to_Cs2 close_aromatic_ring close_aromatic_ring close_aromatic_ring close_aromatic_ring

>  <prot_clashes>  (181) 
5

>  <NBS phar>  (181) 
0.13999999999999999

>  <NBS_non-phar>  (181) 
0.39830520417955184

>  <NBS>  (181) 
0.5383052041795519

>  <source_stage>  (181) 
scored

>  <source_iter>  (181) 
15

>  <source_parent_mol>  (181) 
1

>  <source_scenario>  (181) 
1 1 2 0 5 4 1 1 1 0 1 0 0 0 1

>  <source_rank_in_scored_call>  (181) 
0

>  <source_current_task>  (181) 
close_aromatic_ring

>  <scenario>  (181) 
1 1 2 0 5 4 1 1 1 0 1 0 0 0

>  <current_task>  (181) 
no_task

$$$$

     RDKit          3D

 18 20  0  0  0  0  0  0  0  0999 V2000
  -28.4340   -7.9860  -31.8780 C   0  0  0  0  0  0  0  0  0  0  0  0
  -28.0640   -7.1500  -32.8870 N   0  0  0  0  0  0  0  0  0  0  0  0
  -28.4390   -9.3810  -32.1830 N   0  0  0  0  0  0  0  0  0  0  0  0
  -27.9340   -5.8310  -32.6980 C   0  0  0  0  0  0  0  0  0  0  0  0
  -28.1850   -5.3200  -31.4330 C   0  0  0  0  0  0  0  0  0  0  0  0
  -28.5840   -6.2350  -30.3530 C   0  0  0  0  0  0  0  0  0  0  0  0
  -28.6900   -7.5420  -30.6370 N   0  0  0  0  0  0  0  0  0  0  0  0
  -28.7600   -5.4390  -29.2340 C   0  0  0  0  0  0  0  0  0  0  0  0
  -28.4940   -4.1250  -29.5810 C   0  0  0  0  0  0  0  0  0  0  0  0
  -28.1430   -4.0570  -30.9250 C   0  0  0  0  0  0  0  0  0  0  0  0
  -28.1340  -10.3800  -31.2480 C   0  0  0  0  0  0  0  0  0  0  0  0
  -27.9650  -10.2100  -30.0460 O   0  0  0  0  0  0  0  0  0  0  0  0
  -27.9957  -11.8241  -31.8016 C   0  0  0  0  0  0  0  0  0  0  0  0
  -27.4494  -12.7699  -31.0196 N   0  0  0  0  0  0  0  0  0  0  0  0
  -27.2938  -14.0462  -31.4112 C   0  0  0  0  0  0  0  0  0  0  0  0
  -28.4483  -12.0966  -33.0939 C   0  0  0  0  0  0  0  0  0  0  0  0
  -28.2997  -13.4150  -33.5286 C   0  0  0  0  0  0  0  0  0  0  0  0
  -27.7276  -14.3752  -32.6914 C   0  0  0  0  0  0  0  0  0  0  0  0
  1  2  2  0
  1  3  1  0
  1  7  1  0
  2  4  1  0
  3 11  1  0
  4  5  2  0
  5 10  1  0
  5  6  1  0
  6  7  1  0
  6  8  2  0
  8  9  1  0
  9 10  2  0
 11 13  1  0
 11 12  2  0
 13 16  1  0
 13 14  2  0
 14 15  1  0
 16 17  2  0
 15 18  2  0
 17 18  1  0
M  END
>  <name>  (182) 
Car Nac Nd0 Car Car Car Nd0 Car Car Car Cs2 .=O Car Nac Car Car Car Car

>  <indices>  (182) 
[0, 1, 2]

>  <tasks>  (182) 
probe_placing close_aromatic_ring close_aromatic_ring close_aromatic_ring close_aromatic_ring ring_built fix_Car close_aromatic_ring close_aromatic_ring build_to_Nd0 build_DB_to_Cs2 build_SB_to_Cs2 close_aromatic_ring close_aromatic_ring close_aromatic_ring close_aromatic_ring

>  <prot_clashes>  (182) 
4

>  <NBS phar>  (182) 
0.13999999999999999

>  <NBS_non-phar>  (182) 
0.39078179995218915

>  <NBS>  (182) 
0.5307817999521891

>  <source_stage>  (182) 
scored

>  <source_iter>  (182) 
15

>  <source_parent_mol>  (182) 
1

>  <source_scenario>  (182) 
1 1 2 0 5 4 1 1 1 0 1 0 0 0 1

>  <source_rank_in_scored_call>  (182) 
1

>  <source_current_task>  (182) 
close_aromatic_ring

>  <scenario>  (182) 
1 1 2 0 5 4 1 1 1 0 1 0 0 0

>  <current_task>  (182) 
no_task

$$$$

     RDKit          3D

 18 20  0  0  0  0  0  0  0  0999 V2000
  -28.4670   -8.0150  -31.8610 C   0  0  0  0  0  0  0  0  0  0  0  0
  -28.0640   -7.1740  -32.8530 N   0  0  0  0  0  0  0  0  0  0  0  0
  -28.4370   -9.4100  -32.1630 N   0  0  0  0  0  0  0  0  0  0  0  0
  -27.9630   -5.8540  -32.6600 C   0  0  0  0  0  0  0  0  0  0  0  0
  -28.2790   -5.3450  -31.4090 C   0  0  0  0  0  0  0  0  0  0  0  0
  -28.7130   -6.2650  -30.3460 C   0  0  0  0  0  0  0  0  0  0  0  0
  -28.7860   -7.5740  -30.6330 N   0  0  0  0  0  0  0  0  0  0  0  0
  -28.9520   -5.4710  -29.2380 C   0  0  0  0  0  0  0  0  0  0  0  0
  -28.6900   -4.1530  -29.5750 C   0  0  0  0  0  0  0  0  0  0  0  0
  -28.2790   -4.0810  -30.9010 C   0  0  0  0  0  0  0  0  0  0  0  0
  -28.1600  -10.4040  -31.2130 C   0  0  0  0  0  0  0  0  0  0  0  0
  -28.0490  -10.2300  -30.0050 O   0  0  0  0  0  0  0  0  0  0  0  0
  -27.9790  -11.8530  -31.7750 C   0  0  0  0  0  0  0  0  0  0  0  0
  -27.3830  -12.7780  -31.0020 N   0  0  0  0  0  0  0  0  0  0  0  0
  -27.2790  -14.0730  -31.3850 C   0  0  0  0  0  0  0  0  0  0  0  0
  -28.5300  -12.1360  -33.0090 C   0  0  0  0  0  0  0  0  0  0  0  0
  -27.8200  -14.3930  -32.6170 C   0  0  0  0  0  0  0  0  0  0  0  0
  -28.4350  -13.4650  -33.4280 C   0  0  0  0  0  0  0  0  0  0  0  0
  1  2  2  0
  1  3  1  0
  1  7  1  0
  2  4  1  0
  3 11  1  0
  4  5  2  0
  5 10  1  0
  5  6  1  0
  6  7  1  0
  6  8  2  0
  8  9  1  0
  9 10  2  0
 11 13  1  0
 11 12  2  0
 13 16  1  0
 13 14  2  0
 14 15  1  0
 15 17  2  0
 16 18  2  0
 17 18  1  0
M  END
>  <name>  (183) 
Car Nac Nd0 Car Car Car Nd0 Car Car Car Cs2 .=O Car Nac Car Car Car Car

>  <indices>  (183) 
[0, 1, 2]

>  <tasks>  (183) 
probe_placing close_aromatic_ring close_aromatic_ring close_aromatic_ring close_aromatic_ring ring_built fix_Car close_aromatic_ring close_aromatic_ring build_to_Nd0 build_DB_to_Cs2 build_SB_to_Cs2 close_aromatic_ring close_aromatic_ring close_aromatic_ring close_aromatic_ring

>  <prot_clashes>  (183) 
3

>  <NBS phar>  (183) 
0.12

>  <NBS_non-phar>  (183) 
0.34011978573269314

>  <NBS>  (183) 
0.46011978573269313

>  <source_stage>  (183) 
scored

>  <source_iter>  (183) 
15

>  <source_parent_mol>  (183) 
3

>  <source_scenario>  (183) 
1 1 2 0 5 4 1 1 1 0 1 0 0 0 3

>  <source_rank_in_scored_call>  (183) 
0

>  <source_current_task>  (183) 
close_aromatic_ring

>  <scenario>  (183) 
1 1 2 0 5 4 1 1 1 0 1 0 0 0

>  <current_task>  (183) 
no_task

$$$$

     RDKit          3D

 18 20  0  0  0  0  0  0  0  0999 V2000
  -28.4660   -8.0130  -31.8470 C   0  0  0  0  0  0  0  0  0  0  0  0
  -28.0650   -7.1080  -32.7820 N   0  0  0  0  0  0  0  0  0  0  0  0
  -28.3800   -9.3880  -32.2200 N   0  0  0  0  0  0  0  0  0  0  0  0
  -28.0150   -5.7970  -32.5180 C   0  0  0  0  0  0  0  0  0  0  0  0
  -28.3830   -5.3660  -31.2520 C   0  0  0  0  0  0  0  0  0  0  0  0
  -28.8140   -6.3540  -30.2520 C   0  0  0  0  0  0  0  0  0  0  0  0
  -28.8340   -7.6480  -30.6080 N   0  0  0  0  0  0  0  0  0  0  0  0
  -29.1110   -5.6280  -29.1120 C   0  0  0  0  0  0  0  0  0  0  0  0
  -28.8860   -4.2860  -29.3720 C   0  0  0  0  0  0  0  0  0  0  0  0
  -28.4410   -4.1310  -30.6800 C   0  0  0  0  0  0  0  0  0  0  0  0
  -28.0950  -10.4210  -31.3150 C   0  0  0  0  0  0  0  0  0  0  0  0
  -28.0230  -10.3070  -30.0970 O   0  0  0  0  0  0  0  0  0  0  0  0
  -27.8486  -11.7921  -31.9156 C   0  0  0  0  0  0  0  0  0  0  0  0
  -27.3019  -12.7740  -31.1461 N   0  0  0  0  0  0  0  0  0  0  0  0
  -27.0918  -14.0132  -31.6532 C   0  0  0  0  0  0  0  0  0  0  0  0
  -28.1783  -12.1025  -33.2205 C   0  0  0  0  0  0  0  0  0  0  0  0
  -27.4192  -14.3295  -32.9563 C   0  0  0  0  0  0  0  0  0  0  0  0
  -27.9757  -13.3567  -33.7645 C   0  0  0  0  0  0  0  0  0  0  0  0
  1  2  2  0
  1  3  1  0
  1  7  1  0
  2  4  1  0
  3 11  1  0
  4  5  2  0
  5 10  1  0
  5  6  1  0
  6  7  1  0
  6  8  2  0
  8  9  1  0
  9 10  2  0
 11 13  1  0
 11 12  2  0
 13 16  1  0
 13 14  2  0
 14 15  1  0
 15 17  2  0
 17 18  1  0
 16 18  2  0
M  END
>  <name>  (184) 
Car Nac Nd0 Car Car Car Nd0 Car Car Car Cs2 .=O Car Nac Car Car Car Car

>  <indices>  (184) 
[0, 1, 2]

>  <tasks>  (184) 
probe_placing close_aromatic_ring close_aromatic_ring close_aromatic_ring close_aromatic_ring ring_built fix_Car close_aromatic_ring close_aromatic_ring build_to_Nd0 build_DB_to_Cs2 build_SB_to_Cs2 close_aromatic_ring close_aromatic_ring close_aromatic_ring close_aromatic_ring

>  <prot_clashes>  (184) 
4

>  <NBS phar>  (184) 
0.1

>  <NBS_non-phar>  (184) 
0.33864633242289227

>  <NBS>  (184) 
0.4386463324228923

>  <source_stage>  (184) 
scored

>  <source_iter>  (184) 
15

>  <source_parent_mol>  (184) 
3

>  <source_scenario>  (184) 
1 1 2 0 5 4 1 1 1 0 1 0 0 0 3

>  <source_rank_in_scored_call>  (184) 
1

>  <source_current_task>  (184) 
close_aromatic_ring

>  <scenario>  (184) 
1 1 2 0 5 4 1 1 1 0 1 0 0 0

>  <current_task>  (184) 
no_task

$$$$

     RDKit          3D

 18 20  0  0  0  0  0  0  0  0999 V2000
  -28.4660   -8.0130  -31.8470 C   0  0  0  0  0  0  0  0  0  0  0  0
  -28.0650   -7.1080  -32.7820 N   0  0  0  0  0  0  0  0  0  0  0  0
  -28.3800   -9.3880  -32.2200 N   0  0  0  0  0  0  0  0  0  0  0  0
  -28.0150   -5.7970  -32.5180 C   0  0  0  0  0  0  0  0  0  0  0  0
  -28.3830   -5.3660  -31.2520 C   0  0  0  0  0  0  0  0  0  0  0  0
  -28.8140   -6.3540  -30.2520 C   0  0  0  0  0  0  0  0  0  0  0  0
  -28.8340   -7.6480  -30.6080 N   0  0  0  0  0  0  0  0  0  0  0  0
  -29.1110   -5.6280  -29.1120 C   0  0  0  0  0  0  0  0  0  0  0  0
  -28.8860   -4.2860  -29.3720 C   0  0  0  0  0  0  0  0  0  0  0  0
  -28.4410   -4.1310  -30.6800 C   0  0  0  0  0  0  0  0  0  0  0  0
  -28.0950  -10.4210  -31.3150 C   0  0  0  0  0  0  0  0  0  0  0  0
  -28.0230  -10.3070  -30.0970 O   0  0  0  0  0  0  0  0  0  0  0  0
  -27.8482  -11.8321  -31.9461 C   0  0  0  0  0  0  0  0  0  0  0  0
  -27.2418  -12.7757  -31.2042 N   0  0  0  0  0  0  0  0  0  0  0  0
  -27.0828  -14.0446  -31.6506 C   0  0  0  0  0  0  0  0  0  0  0  0
  -28.3548  -12.0673  -33.2084 C   0  0  0  0  0  0  0  0  0  0  0  0
  -27.5787  -14.3172  -32.9128 C   0  0  0  0  0  0  0  0  0  0  0  0
  -28.2035  -13.3691  -33.6925 C   0  0  0  0  0  0  0  0  0  0  0  0
  1  2  2  0
  1  3  1  0
  1  7  1  0
  2  4  1  0
  3 11  1  0
  4  5  2  0
  5 10  1  0
  5  6  1  0
  6  7  1  0
  6  8  2  0
  8  9  1  0
  9 10  2  0
 11 13  1  0
 11 12  2  0
 13 16  1  0
 13 14  2  0
 14 15  1  0
 15 17  2  0
 16 18  2  0
 17 18  1  0
M  END
>  <name>  (185) 
Car Nac Nd0 Car Car Car Nd0 Car Car Car Cs2 .=O Car Nac Car Car Car Car

>  <indices>  (185) 
[0, 1, 2]

>  <tasks>  (185) 
probe_placing close_aromatic_ring close_aromatic_ring close_aromatic_ring close_aromatic_ring ring_built fix_Car close_aromatic_ring close_aromatic_ring build_to_Nd0 build_DB_to_Cs2 build_SB_to_Cs2 close_aromatic_ring close_aromatic_ring close_aromatic_ring close_aromatic_ring

>  <prot_clashes>  (185) 
4

>  <NBS phar>  (185) 
0.1

>  <NBS_non-phar>  (185) 
0.33624699380662704

>  <NBS>  (185) 
0.436246993806627

>  <source_stage>  (185) 
scored

>  <source_iter>  (185) 
15

>  <source_parent_mol>  (185) 
3

>  <source_scenario>  (185) 
1 1 2 0 5 4 1 1 1 0 1 0 0 0 3

>  <source_rank_in_scored_call>  (185) 
2

>  <source_current_task>  (185) 
close_aromatic_ring

>  <scenario>  (185) 
1 1 2 0 5 4 1 1 1 0 1 0 0 0

>  <current_task>  (185) 
no_task

$$$$

     RDKit          3D

 18 20  0  0  0  0  0  0  0  0999 V2000
  -27.8090   -7.5220  -31.7450 C   0  0  0  0  0  0  0  0  0  0  0  0
  -27.6900   -6.6250  -32.7630 N   0  0  0  0  0  0  0  0  0  0  0  0
  -27.7490   -8.8720  -31.6760 N   0  0  0  0  0  0  0  0  0  0  0  0
  -27.8020   -5.2890  -32.5130 C   0  0  0  0  0  0  0  0  0  0  0  0
  -28.0370   -4.8190  -31.2360 C   0  0  0  0  0  0  0  0  0  0  0  0
  -28.1560   -5.7030  -30.2260 N   0  0  0  0  0  0  0  0  0  0  0  0
  -28.0460   -7.0150  -30.4690 C   0  0  0  0  0  0  0  0  0  0  0  0
  -27.9350   -9.2720  -30.4030 C   0  0  0  0  0  0  0  0  0  0  0  0
  -28.1210   -8.1200  -29.6540 C   0  0  0  0  0  0  0  0  0  0  0  0
  -28.3440   -8.0870  -28.2980 N   0  0  0  0  0  0  0  0  0  0  0  0
  -27.3150   -8.5790  -27.4230 C   0  0  0  0  0  0  0  0  0  0  0  0
  -26.1880   -8.9090  -27.6900 O   0  0  0  0  0  0  0  0  0  0  0  0
  -27.6950   -8.8610  -25.9530 C   0  0  0  0  0  0  0  0  0  0  0  0
  -26.8090   -8.4810  -24.9610 C   0  0  0  0  0  0  0  0  0  0  0  0
  -27.2360   -8.4120  -23.6470 C   0  0  0  0  0  0  0  0  0  0  0  0
  -28.5650   -8.7290  -23.3360 C   0  0  0  0  0  0  0  0  0  0  0  0
  -29.4340   -9.1070  -24.3570 C   0  0  0  0  0  0  0  0  0  0  0  0
  -29.0240   -9.1800  -25.6730 C   0  0  0  0  0  0  0  0  0  0  0  0
  1  2  2  0
  1  3  1  0
  1  7  1  0
  2  4  1  0
  3  8  1  0
  4  5  2  0
  5  6  1  0
  6  7  2  0
  7  9  1  0
  8  9  2  0
  9 10  1  0
 10 11  1  0
 11 12  2  0
 11 13  1  0
 13 18  1  0
 13 14  2  0
 14 15  1  0
 15 16  2  0
 16 17  1  0
 17 18  2  0
M  END
>  <name>  (186) 
Car Nac Nd0 Car Car Nac Car Car Car Nd0 Cs2 .=O Car Car Car Car Car Car

>  <indices>  (186) 
[0, 1, 2]

>  <tasks>  (186) 
probe_placing close_aromatic_ring close_aromatic_ring close_aromatic_ring close_aromatic_ring ring_built build_to_Nd0 close_aromatic_ring no_task build_to_Nd0 build_DB_to_Cs2 build_SB_to_Cs2 close_aromatic_ring close_aromatic_ring close_aromatic_ring close_aromatic_ring

>  <prot_clashes>  (186) 
2

>  <NBS phar>  (186) 
0.3

>  <NBS_non-phar>  (186) 
0.6882092157999674

>  <NBS>  (186) 
0.9882092157999673

>  <source_stage>  (186) 
scored

>  <source_iter>  (186) 
15

>  <source_parent_mol>  (186) 
0

>  <source_scenario>  (186) 
1 1 2 1 0 0 0 0 1 0 1 0 0 1 0

>  <source_rank_in_scored_call>  (186) 
0

>  <source_current_task>  (186) 
close_aromatic_ring

>  <scenario>  (186) 
1 1 2 1 0 0 0 0 1 0 1 0 0 1

>  <current_task>  (186) 
no_task

$$$$

     RDKit          3D

 18 20  0  0  0  0  0  0  0  0999 V2000
  -27.7630   -7.5610  -31.7900 C   0  0  0  0  0  0  0  0  0  0  0  0
  -27.6940   -6.6330  -32.7840 N   0  0  0  0  0  0  0  0  0  0  0  0
  -27.5620   -8.8990  -31.7420 N   0  0  0  0  0  0  0  0  0  0  0  0
  -27.9600   -5.3230  -32.5150 C   0  0  0  0  0  0  0  0  0  0  0  0
  -28.3020   -4.9100  -31.2430 C   0  0  0  0  0  0  0  0  0  0  0  0
  -28.3720   -5.8250  -30.2560 N   0  0  0  0  0  0  0  0  0  0  0  0
  -28.1110   -7.1120  -30.5170 C   0  0  0  0  0  0  0  0  0  0  0  0
  -27.7630   -9.3460  -30.4870 C   0  0  0  0  0  0  0  0  0  0  0  0
  -28.1050   -8.2380  -29.7270 C   0  0  0  0  0  0  0  0  0  0  0  0
  -28.3920   -8.2600  -28.3830 N   0  0  0  0  0  0  0  0  0  0  0  0
  -27.3570   -8.6610  -27.4690 C   0  0  0  0  0  0  0  0  0  0  0  0
  -26.1900   -8.8630  -27.6880 O   0  0  0  0  0  0  0  0  0  0  0  0
  -27.8901   -8.8540  -26.0573 C   0  0  0  0  0  0  0  0  0  0  0  0
  -27.0404   -8.5854  -25.0041 C   0  0  0  0  0  0  0  0  0  0  0  0
  -27.4593   -8.6691  -23.6921 C   0  0  0  0  0  0  0  0  0  0  0  0
  -28.7611   -9.0304  -23.4159 C   0  0  0  0  0  0  0  0  0  0  0  0
  -29.6559   -9.3113  -24.4539 C   0  0  0  0  0  0  0  0  0  0  0  0
  -29.1904   -9.2145  -25.7696 C   0  0  0  0  0  0  0  0  0  0  0  0
  1  2  2  0
  1  3  1  0
  1  7  1  0
  2  4  1  0
  3  8  1  0
  4  5  2  0
  5  6  1  0
  6  7  2  0
  7  9  1  0
  8  9  2  0
  9 10  1  0
 10 11  1  0
 11 12  2  0
 11 13  1  0
 13 14  2  0
 14 15  1  0
 15 16  2  0
 16 17  1  0
 13 18  1  0
 17 18  2  0
M  END
>  <name>  (187) 
Car Nac Nd0 Car Car Nac Car Car Car Nd0 Cs2 .=O Car Car Car Car Car Car

>  <indices>  (187) 
[0, 1, 2]

>  <tasks>  (187) 
probe_placing close_aromatic_ring close_aromatic_ring close_aromatic_ring close_aromatic_ring ring_built build_to_Nd0 close_aromatic_ring no_task build_to_Nd0 build_DB_to_Cs2 build_SB_to_Cs2 close_aromatic_ring close_aromatic_ring close_aromatic_ring close_aromatic_ring

>  <prot_clashes>  (187) 
4

>  <NBS phar>  (187) 
0.34

>  <NBS_non-phar>  (187) 
0.6452342669169108

>  <NBS>  (187) 
0.9852342669169107

>  <source_stage>  (187) 
scored

>  <source_iter>  (187) 
15

>  <source_parent_mol>  (187) 
0

>  <source_scenario>  (187) 
1 1 2 1 0 0 0 0 1 0 1 0 0 1 0

>  <source_rank_in_scored_call>  (187) 
1

>  <source_current_task>  (187) 
close_aromatic_ring

>  <scenario>  (187) 
1 1 2 1 0 0 0 0 1 0 1 0 0 1

>  <current_task>  (187) 
no_task

$$$$

     RDKit          3D

 18 20  0  0  0  0  0  0  0  0999 V2000
  -27.8090   -7.5330  -31.7460 C   0  0  0  0  0  0  0  0  0  0  0  0
  -27.6670   -6.6490  -32.7730 N   0  0  0  0  0  0  0  0  0  0  0  0
  -27.8060   -8.8840  -31.6660 N   0  0  0  0  0  0  0  0  0  0  0  0
  -27.7180   -5.3080  -32.5320 C   0  0  0  0  0  0  0  0  0  0  0  0
  -27.9130   -4.8180  -31.2560 C   0  0  0  0  0  0  0  0  0  0  0  0
  -28.0550   -5.6890  -30.2370 N   0  0  0  0  0  0  0  0  0  0  0  0
  -28.0050   -7.0060  -30.4700 C   0  0  0  0  0  0  0  0  0  0  0  0
  -27.9910   -9.2660  -30.3880 C   0  0  0  0  0  0  0  0  0  0  0  0
  -28.1160   -8.1010  -29.6450 C   0  0  0  0  0  0  0  0  0  0  0  0
  -28.3160   -8.0480  -28.2870 N   0  0  0  0  0  0  0  0  0  0  0  0
  -27.2960   -8.5780  -27.4230 C   0  0  0  0  0  0  0  0  0  0  0  0
  -26.1880   -8.9580  -27.7050 O   0  0  0  0  0  0  0  0  0  0  0  0
  -27.7600   -8.6560  -25.9770 C   0  0  0  0  0  0  0  0  0  0  0  0
  -26.8140   -8.4930  -24.9860 C   0  0  0  0  0  0  0  0  0  0  0  0
  -27.1560   -8.4820  -23.6490 C   0  0  0  0  0  0  0  0  0  0  0  0
  -28.4770   -8.6360  -23.2840 C   0  0  0  0  0  0  0  0  0  0  0  0
  -29.4690   -8.8040  -24.2570 C   0  0  0  0  0  0  0  0  0  0  0  0
  -29.0780   -8.8100  -25.6010 C   0  0  0  0  0  0  0  0  0  0  0  0
  1  2  2  0
  1  3  1  0
  1  7  1  0
  2  4  1  0
  3  8  1  0
  4  5  2  0
  5  6  1  0
  6  7  2  0
  7  9  1  0
  8  9  2  0
  9 10  1  0
 10 11  1  0
 11 12  2  0
 11 13  1  0
 13 18  1  0
 13 14  2  0
 14 15  1  0
 15 16  2  0
 16 17  1  0
 17 18  2  0
M  END
>  <name>  (188) 
Car Nac Nd0 Car Car Nac Car Car Car Nd0 Cs2 .=O Car Car Car Car Car Car

>  <indices>  (188) 
[0, 1, 2]

>  <tasks>  (188) 
probe_placing close_aromatic_ring close_aromatic_ring close_aromatic_ring close_aromatic_ring ring_built build_to_Nd0 close_aromatic_ring no_task build_to_Nd0 build_DB_to_Cs2 build_SB_to_Cs2 close_aromatic_ring close_aromatic_ring close_aromatic_ring close_aromatic_ring

>  <prot_clashes>  (188) 
3

>  <NBS phar>  (188) 
0.3

>  <NBS_non-phar>  (188) 
0.6488424407111274

>  <NBS>  (188) 
0.9488424407111273

>  <source_stage>  (188) 
scored

>  <source_iter>  (188) 
15

>  <source_parent_mol>  (188) 
0

>  <source_scenario>  (188) 
1 1 2 1 0 0 0 0 1 0 1 0 0 1 0

>  <source_rank_in_scored_call>  (188) 
2

>  <source_current_task>  (188) 
close_aromatic_ring

>  <scenario>  (188) 
1 1 2 1 0 0 0 0 1 0 1 0 0 1

>  <current_task>  (188) 
no_task

$$$$

     RDKit          3D

 18 20  0  0  0  0  0  0  0  0999 V2000
  -27.7630   -7.5610  -31.7900 C   0  0  0  0  0  0  0  0  0  0  0  0
  -27.6940   -6.6330  -32.7840 N   0  0  0  0  0  0  0  0  0  0  0  0
  -27.5620   -8.8990  -31.7420 N   0  0  0  0  0  0  0  0  0  0  0  0
  -27.9600   -5.3230  -32.5150 C   0  0  0  0  0  0  0  0  0  0  0  0
  -28.3020   -4.9100  -31.2430 C   0  0  0  0  0  0  0  0  0  0  0  0
  -28.3720   -5.8250  -30.2560 N   0  0  0  0  0  0  0  0  0  0  0  0
  -28.1110   -7.1120  -30.5170 C   0  0  0  0  0  0  0  0  0  0  0  0
  -27.7630   -9.3460  -30.4870 C   0  0  0  0  0  0  0  0  0  0  0  0
  -28.1050   -8.2380  -29.7270 C   0  0  0  0  0  0  0  0  0  0  0  0
  -28.3920   -8.2600  -28.3830 N   0  0  0  0  0  0  0  0  0  0  0  0
  -27.3570   -8.6610  -27.4690 C   0  0  0  0  0  0  0  0  0  0  0  0
  -26.1900   -8.8630  -27.6880 O   0  0  0  0  0  0  0  0  0  0  0  0
  -27.7723   -9.0151  -26.0236 C   0  0  0  0  0  0  0  0  0  0  0  0
  -26.9779   -8.5672  -24.9837 C   0  0  0  0  0  0  0  0  0  0  0  0
  -27.4690   -8.5742  -23.6911 C   0  0  0  0  0  0  0  0  0  0  0  0
  -28.7698   -9.0365  -23.4504 C   0  0  0  0  0  0  0  0  0  0  0  0
  -29.5459   -9.4813  -24.5179 C   0  0  0  0  0  0  0  0  0  0  0  0
  -29.0699   -9.4805  -25.8136 C   0  0  0  0  0  0  0  0  0  0  0  0
  1  2  2  0
  1  3  1  0
  1  7  1  0
  2  4  1  0
  3  8  1  0
  4  5  2  0
  5  6  1  0
  6  7  2  0
  7  9  1  0
  8  9  2  0
  9 10  1  0
 10 11  1  0
 11 12  2  0
 11 13  1  0
 13 14  2  0
 14 15  1  0
 15 16  2  0
 16 17  1  0
 13 18  1  0
 17 18  2  0
M  END
>  <name>  (189) 
Car Nac Nd0 Car Car Nac Car Car Car Nd0 Cs2 .=O Car Car Car Car Car Car

>  <indices>  (189) 
[0, 1, 2]

>  <tasks>  (189) 
probe_placing close_aromatic_ring close_aromatic_ring close_aromatic_ring close_aromatic_ring ring_built build_to_Nd0 close_aromatic_ring no_task build_to_Nd0 build_DB_to_Cs2 build_SB_to_Cs2 close_aromatic_ring close_aromatic_ring close_aromatic_ring close_aromatic_ring

>  <prot_clashes>  (189) 
4

>  <NBS phar>  (189) 
0.3

>  <NBS_non-phar>  (189) 
0.640448252360026

>  <NBS>  (189) 
0.9404482523600259

>  <source_stage>  (189) 
scored

>  <source_iter>  (189) 
15

>  <source_parent_mol>  (189) 
0

>  <source_scenario>  (189) 
1 1 2 1 0 0 0 0 1 0 1 0 0 1 0

>  <source_rank_in_scored_call>  (189) 
3

>  <source_current_task>  (189) 
close_aromatic_ring

>  <scenario>  (189) 
1 1 2 1 0 0 0 0 1 0 1 0 0 1

>  <current_task>  (189) 
no_task

$$$$

     RDKit          3D

 18 20  0  0  0  0  0  0  0  0999 V2000
  -27.7630   -7.5610  -31.7900 C   0  0  0  0  0  0  0  0  0  0  0  0
  -27.6940   -6.6330  -32.7840 N   0  0  0  0  0  0  0  0  0  0  0  0
  -27.5620   -8.8990  -31.7420 N   0  0  0  0  0  0  0  0  0  0  0  0
  -27.9600   -5.3230  -32.5150 C   0  0  0  0  0  0  0  0  0  0  0  0
  -28.3020   -4.9100  -31.2430 C   0  0  0  0  0  0  0  0  0  0  0  0
  -28.3720   -5.8250  -30.2560 N   0  0  0  0  0  0  0  0  0  0  0  0
  -28.1110   -7.1120  -30.5170 C   0  0  0  0  0  0  0  0  0  0  0  0
  -27.7630   -9.3460  -30.4870 C   0  0  0  0  0  0  0  0  0  0  0  0
  -28.1050   -8.2380  -29.7270 C   0  0  0  0  0  0  0  0  0  0  0  0
  -28.3920   -8.2600  -28.3830 N   0  0  0  0  0  0  0  0  0  0  0  0
  -27.3570   -8.6610  -27.4690 C   0  0  0  0  0  0  0  0  0  0  0  0
  -26.1900   -8.8630  -27.6880 O   0  0  0  0  0  0  0  0  0  0  0  0
  -27.8758   -8.6676  -26.0441 C   0  0  0  0  0  0  0  0  0  0  0  0
  -26.9884   -8.5670  -24.9905 C   0  0  0  0  0  0  0  0  0  0  0  0
  -27.4265   -8.7471  -23.6842 C   0  0  0  0  0  0  0  0  0  0  0  0
  -28.7708   -9.0323  -23.4184 C   0  0  0  0  0  0  0  0  0  0  0  0
  -29.6596   -9.1328  -24.4766 C   0  0  0  0  0  0  0  0  0  0  0  0
  -29.1981   -8.9494  -25.7646 C   0  0  0  0  0  0  0  0  0  0  0  0
  1  2  2  0
  1  3  1  0
  1  7  1  0
  2  4  1  0
  3  8  1  0
  4  5  2  0
  5  6  1  0
  6  7  2  0
  7  9  1  0
  8  9  2  0
  9 10  1  0
 10 11  1  0
 11 12  2  0
 11 13  1  0
 13 14  2  0
 14 15  1  0
 15 16  2  0
 16 17  1  0
 13 18  1  0
 17 18  2  0
M  END
>  <name>  (190) 
Car Nac Nd0 Car Car Nac Car Car Car Nd0 Cs2 .=O Car Car Car Car Car Car

>  <indices>  (190) 
[0, 1, 2]

>  <tasks>  (190) 
probe_placing close_aromatic_ring close_aromatic_ring close_aromatic_ring close_aromatic_ring ring_built build_to_Nd0 close_aromatic_ring no_task build_to_Nd0 build_DB_to_Cs2 build_SB_to_Cs2 close_aromatic_ring close_aromatic_ring close_aromatic_ring close_aromatic_ring

>  <prot_clashes>  (190) 
5

>  <NBS phar>  (190) 
0.32

>  <NBS_non-phar>  (190) 
0.6032525698343912

>  <NBS>  (190) 
0.9232525698343912

>  <source_stage>  (190) 
scored

>  <source_iter>  (190) 
15

>  <source_parent_mol>  (190) 
0

>  <source_scenario>  (190) 
1 1 2 1 0 0 0 0 1 0 1 0 0 1 0

>  <source_rank_in_scored_call>  (190) 
4

>  <source_current_task>  (190) 
close_aromatic_ring

>  <scenario>  (190) 
1 1 2 1 0 0 0 0 1 0 1 0 0 1

>  <current_task>  (190) 
no_task

$$$$

     RDKit          3D

 18 20  0  0  0  0  0  0  0  0999 V2000
  -27.8080   -7.5250  -31.7630 C   0  0  0  0  0  0  0  0  0  0  0  0
  -27.6950   -6.6300  -32.7830 N   0  0  0  0  0  0  0  0  0  0  0  0
  -27.7730   -8.8760  -31.6950 N   0  0  0  0  0  0  0  0  0  0  0  0
  -27.7750   -5.2920  -32.5300 C   0  0  0  0  0  0  0  0  0  0  0  0
  -27.9710   -4.8180  -31.2480 C   0  0  0  0  0  0  0  0  0  0  0  0
  -28.0840   -5.7000  -30.2360 N   0  0  0  0  0  0  0  0  0  0  0  0
  -28.0050   -7.0140  -30.4810 C   0  0  0  0  0  0  0  0  0  0  0  0
  -27.9380   -9.2730  -30.4180 C   0  0  0  0  0  0  0  0  0  0  0  0
  -28.0840   -8.1180  -29.6650 C   0  0  0  0  0  0  0  0  0  0  0  0
  -28.2740   -8.0810  -28.3040 N   0  0  0  0  0  0  0  0  0  0  0  0
  -27.2350   -8.5950  -27.4540 C   0  0  0  0  0  0  0  0  0  0  0  0
  -26.1210   -8.9470  -27.7470 O   0  0  0  0  0  0  0  0  0  0  0  0
  -27.6470   -8.5120  -25.9970 C   0  0  0  0  0  0  0  0  0  0  0  0
  -26.6810   -8.5070  -25.0100 C   0  0  0  0  0  0  0  0  0  0  0  0
  -27.0440   -8.6080  -23.6720 C   0  0  0  0  0  0  0  0  0  0  0  0
  -28.3900   -8.7160  -23.3070 C   0  0  0  0  0  0  0  0  0  0  0  0
  -29.3590   -8.7210  -24.2990 C   0  0  0  0  0  0  0  0  0  0  0  0
  -28.9710   -8.6190  -25.6200 C   0  0  0  0  0  0  0  0  0  0  0  0
  1  2  2  0
  1  3  1  0
  1  7  1  0
  2  4  1  0
  3  8  1  0
  4  5  2  0
  5  6  1  0
  6  7  2  0
  7  9  1  0
  8  9  2  0
  9 10  1  0
 10 11  1  0
 11 12  2  0
 11 13  1  0
 13 18  1  0
 13 14  2  0
 14 15  1  0
 15 16  2  0
 16 17  1  0
 17 18  2  0
M  END
>  <name>  (191) 
Car Nac Nd0 Car Car Nac Car Car Car Nd0 Cs2 .=O Car Car Car Car Car Car

>  <indices>  (191) 
[0, 1, 2]

>  <tasks>  (191) 
probe_placing close_aromatic_ring close_aromatic_ring close_aromatic_ring close_aromatic_ring ring_built build_to_Nd0 close_aromatic_ring no_task build_to_Nd0 build_DB_to_Cs2 build_SB_to_Cs2 close_aromatic_ring close_aromatic_ring close_aromatic_ring close_aromatic_ring

>  <prot_clashes>  (191) 
5

>  <NBS phar>  (191) 
0.3

>  <NBS_non-phar>  (191) 
0.6182586881849501

>  <NBS>  (191) 
0.9182586881849502

>  <source_stage>  (191) 
scored

>  <source_iter>  (191) 
15

>  <source_parent_mol>  (191) 
0

>  <source_scenario>  (191) 
1 1 2 1 0 0 0 0 1 0 1 0 0 1 0

>  <source_rank_in_scored_call>  (191) 
5

>  <source_current_task>  (191) 
close_aromatic_ring

>  <scenario>  (191) 
1 1 2 1 0 0 0 0 1 0 1 0 0 1

>  <current_task>  (191) 
no_task

$$$$

     RDKit          3D

 18 20  0  0  0  0  0  0  0  0999 V2000
  -27.7630   -7.5610  -31.7900 C   0  0  0  0  0  0  0  0  0  0  0  0
  -27.6940   -6.6330  -32.7840 N   0  0  0  0  0  0  0  0  0  0  0  0
  -27.5620   -8.8990  -31.7420 N   0  0  0  0  0  0  0  0  0  0  0  0
  -27.9600   -5.3230  -32.5150 C   0  0  0  0  0  0  0  0  0  0  0  0
  -28.3020   -4.9100  -31.2430 C   0  0  0  0  0  0  0  0  0  0  0  0
  -28.3720   -5.8250  -30.2560 N   0  0  0  0  0  0  0  0  0  0  0  0
  -28.1110   -7.1120  -30.5170 C   0  0  0  0  0  0  0  0  0  0  0  0
  -27.7630   -9.3460  -30.4870 C   0  0  0  0  0  0  0  0  0  0  0  0
  -28.1050   -8.2380  -29.7270 C   0  0  0  0  0  0  0  0  0  0  0  0
  -28.3920   -8.2600  -28.3830 N   0  0  0  0  0  0  0  0  0  0  0  0
  -27.3570   -8.6610  -27.4690 C   0  0  0  0  0  0  0  0  0  0  0  0
  -26.1900   -8.8630  -27.6880 O   0  0  0  0  0  0  0  0  0  0  0  0
  -27.8343   -8.9014  -26.0284 C   0  0  0  0  0  0  0  0  0  0  0  0
  -26.9881   -8.5373  -24.9989 C   0  0  0  0  0  0  0  0  0  0  0  0
  -27.4260   -8.6286  -23.6908 C   0  0  0  0  0  0  0  0  0  0  0  0
  -28.7170   -9.0866  -23.4129 C   0  0  0  0  0  0  0  0  0  0  0  0
  -29.1027   -9.3506  -25.7424 C   0  0  0  0  0  0  0  0  0  0  0  0
  -29.5601   -9.4495  -24.4438 C   0  0  0  0  0  0  0  0  0  0  0  0
  1  2  2  0
  1  3  1  0
  1  7  1  0
  2  4  1  0
  3  8  1  0
  4  5  2  0
  5  6  1  0
  6  7  2  0
  7  9  1  0
  8  9  2  0
  9 10  1  0
 10 11  1  0
 11 12  2  0
 11 13  1  0
 13 14  2  0
 14 15  1  0
 15 16  2  0
 13 17  1  0
 17 18  2  0
 16 18  1  0
M  END
>  <name>  (192) 
Car Nac Nd0 Car Car Nac Car Car Car Nd0 Cs2 .=O Car Car Car Car Car Car

>  <indices>  (192) 
[0, 1, 2]

>  <tasks>  (192) 
probe_placing close_aromatic_ring close_aromatic_ring close_aromatic_ring close_aromatic_ring ring_built build_to_Nd0 close_aromatic_ring no_task build_to_Nd0 build_DB_to_Cs2 build_SB_to_Cs2 close_aromatic_ring close_aromatic_ring close_aromatic_ring close_aromatic_ring

>  <prot_clashes>  (192) 
4

>  <NBS phar>  (192) 
0.32

>  <NBS_non-phar>  (192) 
0.6750288009643555

>  <NBS>  (192) 
0.9950288009643555

>  <source_stage>  (192) 
scored

>  <source_iter>  (192) 
15

>  <source_parent_mol>  (192) 
1

>  <source_scenario>  (192) 
1 1 2 1 0 0 0 0 1 0 1 0 0 1 1

>  <source_rank_in_scored_call>  (192) 
0

>  <source_current_task>  (192) 
close_aromatic_ring

>  <scenario>  (192) 
1 1 2 1 0 0 0 0 1 0 1 0 0 1

>  <current_task>  (192) 
no_task

$$$$

     RDKit          3D

 18 20  0  0  0  0  0  0  0  0999 V2000
  -27.8420   -7.5280  -31.7450 C   0  0  0  0  0  0  0  0  0  0  0  0
  -27.7320   -6.6320  -32.7640 N   0  0  0  0  0  0  0  0  0  0  0  0
  -27.7810   -8.8790  -31.6750 N   0  0  0  0  0  0  0  0  0  0  0  0
  -27.8440   -5.2960  -32.5140 C   0  0  0  0  0  0  0  0  0  0  0  0
  -28.0680   -4.8250  -31.2360 C   0  0  0  0  0  0  0  0  0  0  0  0
  -28.1780   -5.7090  -30.2240 N   0  0  0  0  0  0  0  0  0  0  0  0
  -28.0690   -7.0210  -30.4670 C   0  0  0  0  0  0  0  0  0  0  0  0
  -27.9560   -9.2780  -30.4000 C   0  0  0  0  0  0  0  0  0  0  0  0
  -28.1370   -8.1260  -29.6500 C   0  0  0  0  0  0  0  0  0  0  0  0
  -28.3490   -8.0920  -28.2930 N   0  0  0  0  0  0  0  0  0  0  0  0
  -27.3120   -8.5830  -27.4260 C   0  0  0  0  0  0  0  0  0  0  0  0
  -26.1870   -8.9120  -27.7030 O   0  0  0  0  0  0  0  0  0  0  0  0
  -27.7290   -8.7430  -25.9560 C   0  0  0  0  0  0  0  0  0  0  0  0
  -26.7930   -8.4520  -24.9840 C   0  0  0  0  0  0  0  0  0  0  0  0
  -27.1640   -8.4720  -23.6520 C   0  0  0  0  0  0  0  0  0  0  0  0
  -28.4790   -8.7850  -23.2940 C   0  0  0  0  0  0  0  0  0  0  0  0
  -29.0210   -9.0510  -25.5910 C   0  0  0  0  0  0  0  0  0  0  0  0
  -29.4120   -9.0760  -24.2680 C   0  0  0  0  0  0  0  0  0  0  0  0
  1  2  2  0
  1  3  1  0
  1  7  1  0
  2  4  1  0
  3  8  1  0
  4  5  2  0
  5  6  1  0
  6  7  2  0
  7  9  1  0
  8  9  2  0
  9 10  1  0
 10 11  1  0
 11 12  2  0
 11 13  1  0
 13 17  1  0
 13 14  2  0
 14 15  1  0
 15 16  2  0
 16 18  1  0
 17 18  2  0
M  END
>  <name>  (193) 
Car Nac Nd0 Car Car Nac Car Car Car Nd0 Cs2 .=O Car Car Car Car Car Car

>  <indices>  (193) 
[0, 1, 2]

>  <tasks>  (193) 
probe_placing close_aromatic_ring close_aromatic_ring close_aromatic_ring close_aromatic_ring ring_built build_to_Nd0 close_aromatic_ring no_task build_to_Nd0 build_DB_to_Cs2 build_SB_to_Cs2 close_aromatic_ring close_aromatic_ring close_aromatic_ring close_aromatic_ring

>  <prot_clashes>  (193) 
3

>  <NBS phar>  (193) 
0.3

>  <NBS_non-phar>  (193) 
0.6755202611287435

>  <NBS>  (193) 
0.9755202611287435

>  <source_stage>  (193) 
scored

>  <source_iter>  (193) 
15

>  <source_parent_mol>  (193) 
1

>  <source_scenario>  (193) 
1 1 2 1 0 0 0 0 1 0 1 0 0 1 1

>  <source_rank_in_scored_call>  (193) 
3

>  <source_current_task>  (193) 
close_aromatic_ring

>  <scenario>  (193) 
1 1 2 1 0 0 0 0 1 0 1 0 0 1

>  <current_task>  (193) 
no_task

$$$$

     RDKit          3D

 18 20  0  0  0  0  0  0  0  0999 V2000
  -27.7630   -7.5610  -31.7900 C   0  0  0  0  0  0  0  0  0  0  0  0
  -27.6940   -6.6330  -32.7840 N   0  0  0  0  0  0  0  0  0  0  0  0
  -27.5620   -8.8990  -31.7420 N   0  0  0  0  0  0  0  0  0  0  0  0
  -27.9600   -5.3230  -32.5150 C   0  0  0  0  0  0  0  0  0  0  0  0
  -28.3020   -4.9100  -31.2430 C   0  0  0  0  0  0  0  0  0  0  0  0
  -28.3720   -5.8250  -30.2560 N   0  0  0  0  0  0  0  0  0  0  0  0
  -28.1110   -7.1120  -30.5170 C   0  0  0  0  0  0  0  0  0  0  0  0
  -27.7630   -9.3460  -30.4870 C   0  0  0  0  0  0  0  0  0  0  0  0
  -28.1050   -8.2380  -29.7270 C   0  0  0  0  0  0  0  0  0  0  0  0
  -28.3920   -8.2600  -28.3830 N   0  0  0  0  0  0  0  0  0  0  0  0
  -27.3570   -8.6610  -27.4690 C   0  0  0  0  0  0  0  0  0  0  0  0
  -26.1900   -8.8630  -27.6880 O   0  0  0  0  0  0  0  0  0  0  0  0
  -27.8865   -8.8324  -25.9832 C   0  0  0  0  0  0  0  0  0  0  0  0
  -26.9560   -8.5171  -25.0063 C   0  0  0  0  0  0  0  0  0  0  0  0
  -27.3013   -8.7749  -23.6837 C   0  0  0  0  0  0  0  0  0  0  0  0
  -29.1194   -9.3841  -25.6762 C   0  0  0  0  0  0  0  0  0  0  0  0
  -29.4495   -9.6364  -24.3422 C   0  0  0  0  0  0  0  0  0  0  0  0
  -28.5398   -9.3307  -23.3549 C   0  0  0  0  0  0  0  0  0  0  0  0
  1  2  2  0
  1  3  1  0
  1  7  1  0
  2  4  1  0
  3  8  1  0
  4  5  2  0
  5  6  1  0
  6  7  2  0
  7  9  1  0
  8  9  2  0
  9 10  1  0
 10 11  1  0
 11 12  2  0
 11 13  1  0
 13 14  2  0
 14 15  1  0
 13 16  1  0
 16 17  2  0
 15 18  2  0
 17 18  1  0
M  END
>  <name>  (194) 
Car Nac Nd0 Car Car Nac Car Car Car Nd0 Cs2 .=O Car Car Car Car Car Car

>  <indices>  (194) 
[0, 1, 2]

>  <tasks>  (194) 
probe_placing close_aromatic_ring close_aromatic_ring close_aromatic_ring close_aromatic_ring ring_built build_to_Nd0 close_aromatic_ring no_task build_to_Nd0 build_DB_to_Cs2 build_SB_to_Cs2 close_aromatic_ring close_aromatic_ring close_aromatic_ring close_aromatic_ring

>  <prot_clashes>  (194) 
4

>  <NBS phar>  (194) 
0.34

>  <NBS_non-phar>  (194) 
0.670216613345676

>  <NBS>  (194) 
1.010216613345676

>  <source_stage>  (194) 
scored

>  <source_iter>  (194) 
15

>  <source_parent_mol>  (194) 
0

>  <source_scenario>  (194) 
1 1 2 1 0 0 0 0 1 0 1 0 0 2 0

>  <source_rank_in_scored_call>  (194) 
0

>  <source_current_task>  (194) 
close_aromatic_ring

>  <scenario>  (194) 
1 1 2 1 0 0 0 0 1 0 1 0 0 2

>  <current_task>  (194) 
no_task

$$$$

     RDKit          3D

 18 20  0  0  0  0  0  0  0  0999 V2000
  -27.7630   -7.5610  -31.7900 C   0  0  0  0  0  0  0  0  0  0  0  0
  -27.6940   -6.6330  -32.7840 N   0  0  0  0  0  0  0  0  0  0  0  0
  -27.5620   -8.8990  -31.7420 N   0  0  0  0  0  0  0  0  0  0  0  0
  -27.9600   -5.3230  -32.5150 C   0  0  0  0  0  0  0  0  0  0  0  0
  -28.3020   -4.9100  -31.2430 C   0  0  0  0  0  0  0  0  0  0  0  0
  -28.3720   -5.8250  -30.2560 N   0  0  0  0  0  0  0  0  0  0  0  0
  -28.1110   -7.1120  -30.5170 C   0  0  0  0  0  0  0  0  0  0  0  0
  -27.7630   -9.3460  -30.4870 C   0  0  0  0  0  0  0  0  0  0  0  0
  -28.1050   -8.2380  -29.7270 C   0  0  0  0  0  0  0  0  0  0  0  0
  -28.3920   -8.2600  -28.3830 N   0  0  0  0  0  0  0  0  0  0  0  0
  -27.3570   -8.6610  -27.4690 C   0  0  0  0  0  0  0  0  0  0  0  0
  -26.1900   -8.8630  -27.6880 O   0  0  0  0  0  0  0  0  0  0  0  0
  -27.8583   -8.9095  -26.0062 C   0  0  0  0  0  0  0  0  0  0  0  0
  -27.0116   -8.5340  -24.9822 C   0  0  0  0  0  0  0  0  0  0  0  0
  -27.4169   -8.6239  -23.6660 C   0  0  0  0  0  0  0  0  0  0  0  0
  -29.1324   -9.3854  -25.7543 C   0  0  0  0  0  0  0  0  0  0  0  0
  -29.5555   -9.4818  -24.4336 C   0  0  0  0  0  0  0  0  0  0  0  0
  -28.6935   -9.1010  -23.4206 C   0  0  0  0  0  0  0  0  0  0  0  0
  1  2  2  0
  1  3  1  0
  1  7  1  0
  2  4  1  0
  3  8  1  0
  4  5  2  0
  5  6  1  0
  6  7  2  0
  7  9  1  0
  8  9  2  0
  9 10  1  0
 10 11  1  0
 11 12  2  0
 11 13  1  0
 13 14  2  0
 14 15  1  0
 13 16  1  0
 16 17  2  0
 15 18  2  0
 17 18  1  0
M  END
>  <name>  (195) 
Car Nac Nd0 Car Car Nac Car Car Car Nd0 Cs2 .=O Car Car Car Car Car Car

>  <indices>  (195) 
[0, 1, 2]

>  <tasks>  (195) 
probe_placing close_aromatic_ring close_aromatic_ring close_aromatic_ring close_aromatic_ring ring_built build_to_Nd0 close_aromatic_ring no_task build_to_Nd0 build_DB_to_Cs2 build_SB_to_Cs2 close_aromatic_ring close_aromatic_ring close_aromatic_ring close_aromatic_ring

>  <prot_clashes>  (195) 
4

>  <NBS phar>  (195) 
0.32

>  <NBS_non-phar>  (195) 
0.6739882893032498

>  <NBS>  (195) 
0.9939882893032499

>  <source_stage>  (195) 
scored

>  <source_iter>  (195) 
15

>  <source_parent_mol>  (195) 
0

>  <source_scenario>  (195) 
1 1 2 1 0 0 0 0 1 0 1 0 0 2 0

>  <source_rank_in_scored_call>  (195) 
1

>  <source_current_task>  (195) 
close_aromatic_ring

>  <scenario>  (195) 
1 1 2 1 0 0 0 0 1 0 1 0 0 2

>  <current_task>  (195) 
no_task

$$$$

     RDKit          3D

 18 20  0  0  0  0  0  0  0  0999 V2000
  -27.8420   -7.5280  -31.7550 C   0  0  0  0  0  0  0  0  0  0  0  0
  -27.7280   -6.6330  -32.7750 N   0  0  0  0  0  0  0  0  0  0  0  0
  -27.7910   -8.8790  -31.6850 N   0  0  0  0  0  0  0  0  0  0  0  0
  -27.8280   -5.2960  -32.5250 C   0  0  0  0  0  0  0  0  0  0  0  0
  -28.0460   -4.8230  -31.2470 C   0  0  0  0  0  0  0  0  0  0  0  0
  -28.1610   -5.7050  -30.2350 N   0  0  0  0  0  0  0  0  0  0  0  0
  -28.0620   -7.0180  -30.4770 C   0  0  0  0  0  0  0  0  0  0  0  0
  -27.9670   -9.2760  -30.4090 C   0  0  0  0  0  0  0  0  0  0  0  0
  -28.1370   -8.1220  -29.6600 C   0  0  0  0  0  0  0  0  0  0  0  0
  -28.3450   -8.0860  -28.3020 N   0  0  0  0  0  0  0  0  0  0  0  0
  -27.3100   -8.5850  -27.4370 C   0  0  0  0  0  0  0  0  0  0  0  0
  -26.1890   -8.9230  -27.7160 O   0  0  0  0  0  0  0  0  0  0  0  0
  -27.7500   -8.7460  -25.9430 C   0  0  0  0  0  0  0  0  0  0  0  0
  -26.8080   -8.4510  -24.9780 C   0  0  0  0  0  0  0  0  0  0  0  0
  -27.1430   -8.4690  -23.6390 C   0  0  0  0  0  0  0  0  0  0  0  0
  -29.0520   -9.0690  -25.6070 C   0  0  0  0  0  0  0  0  0  0  0  0
  -29.4050   -9.0920  -24.2640 C   0  0  0  0  0  0  0  0  0  0  0  0
  -28.4490   -8.7920  -23.3110 C   0  0  0  0  0  0  0  0  0  0  0  0
  1  2  2  0
  1  3  1  0
  1  7  1  0
  2  4  1  0
  3  8  1  0
  4  5  2  0
  5  6  1  0
  6  7  2  0
  7  9  1  0
  8  9  2  0
  9 10  1  0
 10 11  1  0
 11 12  2  0
 11 13  1  0
 13 16  1  0
 13 14  2  0
 14 15  1  0
 15 18  2  0
 16 17  2  0
 17 18  1  0
M  END
>  <name>  (196) 
Car Nac Nd0 Car Car Nac Car Car Car Nd0 Cs2 .=O Car Car Car Car Car Car

>  <indices>  (196) 
[0, 1, 2]

>  <tasks>  (196) 
probe_placing close_aromatic_ring close_aromatic_ring close_aromatic_ring close_aromatic_ring ring_built build_to_Nd0 close_aromatic_ring no_task build_to_Nd0 build_DB_to_Cs2 build_SB_to_Cs2 close_aromatic_ring close_aromatic_ring close_aromatic_ring close_aromatic_ring

>  <prot_clashes>  (196) 
3

>  <NBS phar>  (196) 
0.3

>  <NBS_non-phar>  (196) 
0.6797975964016385

>  <NBS>  (196) 
0.9797975964016385

>  <source_stage>  (196) 
scored

>  <source_iter>  (196) 
15

>  <source_parent_mol>  (196) 
0

>  <source_scenario>  (196) 
1 1 2 1 0 0 0 0 1 0 1 0 0 2 0

>  <source_rank_in_scored_call>  (196) 
2

>  <source_current_task>  (196) 
close_aromatic_ring

>  <scenario>  (196) 
1 1 2 1 0 0 0 0 1 0 1 0 0 2

>  <current_task>  (196) 
no_task

$$$$

     RDKit          3D

 18 20  0  0  0  0  0  0  0  0999 V2000
  -27.8020   -7.5260  -31.7530 C   0  0  0  0  0  0  0  0  0  0  0  0
  -27.6870   -6.6220  -32.7640 N   0  0  0  0  0  0  0  0  0  0  0  0
  -27.7200   -8.8760  -31.6890 N   0  0  0  0  0  0  0  0  0  0  0  0
  -27.8260   -5.2900  -32.5090 C   0  0  0  0  0  0  0  0  0  0  0  0
  -28.0830   -4.8300  -31.2330 C   0  0  0  0  0  0  0  0  0  0  0  0
  -28.1990   -5.7210  -30.2290 N   0  0  0  0  0  0  0  0  0  0  0  0
  -28.0630   -7.0300  -30.4760 C   0  0  0  0  0  0  0  0  0  0  0  0
  -27.9140   -9.2860  -30.4200 C   0  0  0  0  0  0  0  0  0  0  0  0
  -28.1290   -8.1410  -29.6680 C   0  0  0  0  0  0  0  0  0  0  0  0
  -28.3680   -8.1190  -28.3150 N   0  0  0  0  0  0  0  0  0  0  0  0
  -27.3400   -8.5980  -27.4310 C   0  0  0  0  0  0  0  0  0  0  0  0
  -26.2040   -8.9060  -27.6860 O   0  0  0  0  0  0  0  0  0  0  0  0
  -27.8290   -8.7000  -25.9240 C   0  0  0  0  0  0  0  0  0  0  0  0
  -26.8390   -8.4560  -24.9860 C   0  0  0  0  0  0  0  0  0  0  0  0
  -27.1580   -8.6640  -23.6480 C   0  0  0  0  0  0  0  0  0  0  0  0
  -29.0940   -9.1350  -25.5650 C   0  0  0  0  0  0  0  0  0  0  0  0
  -29.3970   -9.3380  -24.2170 C   0  0  0  0  0  0  0  0  0  0  0  0
  -28.4290   -9.1020  -23.2670 C   0  0  0  0  0  0  0  0  0  0  0  0
  1  2  2  0
  1  3  1  0
  1  7  1  0
  2  4  1  0
  3  8  1  0
  4  5  2  0
  5  6  1  0
  6  7  2  0
  7  9  1  0
  8  9  2  0
  9 10  1  0
 10 11  1  0
 11 12  2  0
 11 13  1  0
 13 16  1  0
 13 14  2  0
 14 15  1  0
 15 18  2  0
 16 17  2  0
 17 18  1  0
M  END
>  <name>  (197) 
Car Nac Nd0 Car Car Nac Car Car Car Nd0 Cs2 .=O Car Car Car Car Car Car

>  <indices>  (197) 
[0, 1, 2]

>  <tasks>  (197) 
probe_placing close_aromatic_ring close_aromatic_ring close_aromatic_ring close_aromatic_ring ring_built build_to_Nd0 close_aromatic_ring no_task build_to_Nd0 build_DB_to_Cs2 build_SB_to_Cs2 close_aromatic_ring close_aromatic_ring close_aromatic_ring close_aromatic_ring

>  <prot_clashes>  (197) 
4

>  <NBS phar>  (197) 
0.3

>  <NBS_non-phar>  (197) 
0.6467840936448839

>  <NBS>  (197) 
0.9467840936448839

>  <source_stage>  (197) 
scored

>  <source_iter>  (197) 
15

>  <source_parent_mol>  (197) 
0

>  <source_scenario>  (197) 
1 1 2 1 0 0 0 0 1 0 1 0 0 2 0

>  <source_rank_in_scored_call>  (197) 
3

>  <source_current_task>  (197) 
close_aromatic_ring

>  <scenario>  (197) 
1 1 2 1 0 0 0 0 1 0 1 0 0 2

>  <current_task>  (197) 
no_task

$$$$

     RDKit          3D

 18 20  0  0  0  0  0  0  0  0999 V2000
  -27.7920   -7.5630  -31.7690 C   0  0  0  0  0  0  0  0  0  0  0  0
  -27.6840   -6.6610  -32.7830 N   0  0  0  0  0  0  0  0  0  0  0  0
  -27.6870   -8.9100  -31.6990 N   0  0  0  0  0  0  0  0  0  0  0  0
  -27.8460   -5.3290  -32.5340 C   0  0  0  0  0  0  0  0  0  0  0  0
  -28.1200   -4.8690  -31.2620 C   0  0  0  0  0  0  0  0  0  0  0  0
  -28.2280   -5.7580  -30.2540 N   0  0  0  0  0  0  0  0  0  0  0  0
  -28.0690   -7.0660  -30.4960 C   0  0  0  0  0  0  0  0  0  0  0  0
  -27.8840   -9.3180  -30.4300 C   0  0  0  0  0  0  0  0  0  0  0  0
  -28.1210   -8.1740  -29.6830 C   0  0  0  0  0  0  0  0  0  0  0  0
  -28.3710   -8.1500  -28.3320 N   0  0  0  0  0  0  0  0  0  0  0  0
  -27.3410   -8.6090  -27.4380 C   0  0  0  0  0  0  0  0  0  0  0  0
  -26.1980   -8.9000  -27.6850 O   0  0  0  0  0  0  0  0  0  0  0  0
  -27.7971   -8.7629  -25.8962 C   0  0  0  0  0  0  0  0  0  0  0  0
  -26.8730   -8.4729  -24.9138 C   0  0  0  0  0  0  0  0  0  0  0  0
  -29.1003   -9.1521  -25.6045 C   0  0  0  0  0  0  0  0  0  0  0  0
  -29.5002   -9.2573  -24.2913 C   0  0  0  0  0  0  0  0  0  0  0  0
  -28.5758   -8.9673  -23.3098 C   0  0  0  0  0  0  0  0  0  0  0  0
  -27.2755   -8.5789  -23.5983 C   0  0  0  0  0  0  0  0  0  0  0  0
  1  2  2  0
  1  3  1  0
  1  7  1  0
  2  4  1  0
  3  8  1  0
  4  5  2  0
  5  6  1  0
  6  7  2  0
  7  9  1  0
  8  9  2  0
  9 10  1  0
 10 11  1  0
 11 12  2  0
 11 13  1  0
 13 15  1  0
 13 14  2  0
 15 16  2  0
 16 17  1  0
 14 18  1  0
 17 18  2  0
M  END
>  <name>  (198) 
Car Nac Nd0 Car Car Nac Car Car Car Nd0 Cs2 .=O Car Car Car Car Car Car

>  <indices>  (198) 
[0, 1, 2]

>  <tasks>  (198) 
probe_placing close_aromatic_ring close_aromatic_ring close_aromatic_ring close_aromatic_ring ring_built build_to_Nd0 close_aromatic_ring no_task build_to_Nd0 build_DB_to_Cs2 build_SB_to_Cs2 close_aromatic_ring close_aromatic_ring close_aromatic_ring close_aromatic_ring

>  <prot_clashes>  (198) 
2

>  <NBS phar>  (198) 
0.3

>  <NBS_non-phar>  (198) 
0.7051596641540527

>  <NBS>  (198) 
1.0051596641540528

>  <source_stage>  (198) 
scored

>  <source_iter>  (198) 
15

>  <source_parent_mol>  (198) 
0

>  <source_scenario>  (198) 
1 1 2 1 0 0 0 0 1 0 1 0 1 1 0

>  <source_rank_in_scored_call>  (198) 
0

>  <source_current_task>  (198) 
close_aromatic_ring

>  <scenario>  (198) 
1 1 2 1 0 0 0 0 1 0 1 0 1 1

>  <current_task>  (198) 
no_task

$$$$

     RDKit          3D

 18 20  0  0  0  0  0  0  0  0999 V2000
  -27.8250   -7.5330  -31.7540 C   0  0  0  0  0  0  0  0  0  0  0  0
  -27.6940   -6.6610  -32.7910 N   0  0  0  0  0  0  0  0  0  0  0  0
  -27.8040   -8.8820  -31.6570 N   0  0  0  0  0  0  0  0  0  0  0  0
  -27.7630   -5.3160  -32.5680 C   0  0  0  0  0  0  0  0  0  0  0  0
  -27.9640   -4.8130  -31.2990 C   0  0  0  0  0  0  0  0  0  0  0  0
  -28.0950   -5.6720  -30.2680 N   0  0  0  0  0  0  0  0  0  0  0  0
  -28.0280   -6.9920  -30.4850 C   0  0  0  0  0  0  0  0  0  0  0  0
  -27.9840   -9.2500  -30.3730 C   0  0  0  0  0  0  0  0  0  0  0  0
  -28.1230   -8.0780  -29.6450 C   0  0  0  0  0  0  0  0  0  0  0  0
  -28.3250   -8.0100  -28.2880 N   0  0  0  0  0  0  0  0  0  0  0  0
  -27.2970   -8.5150  -27.4170 C   0  0  0  0  0  0  0  0  0  0  0  0
  -26.1840   -8.8840  -27.6940 O   0  0  0  0  0  0  0  0  0  0  0  0
  -27.7110   -8.6080  -25.8580 C   0  0  0  0  0  0  0  0  0  0  0  0
  -26.7380   -8.3570  -24.9130 C   0  0  0  0  0  0  0  0  0  0  0  0
  -29.0250   -8.9060  -25.5170 C   0  0  0  0  0  0  0  0  0  0  0  0
  -29.3870   -8.9570  -24.1880 C   0  0  0  0  0  0  0  0  0  0  0  0
  -28.4140   -8.7070  -23.2440 C   0  0  0  0  0  0  0  0  0  0  0  0
  -27.1020   -8.4100  -23.5830 C   0  0  0  0  0  0  0  0  0  0  0  0
  1  2  2  0
  1  3  1  0
  1  7  1  0
  2  4  1  0
  3  8  1  0
  4  5  2  0
  5  6  1  0
  6  7  2  0
  7  9  1  0
  8  9  2  0
  9 10  1  0
 10 11  1  0
 11 12  2  0
 11 13  1  0
 13 15  1  0
 13 14  2  0
 14 18  1  0
 15 16  2  0
 16 17  1  0
 17 18  2  0
M  END
>  <name>  (199) 
Car Nac Nd0 Car Car Nac Car Car Car Nd0 Cs2 .=O Car Car Car Car Car Car

>  <indices>  (199) 
[0, 1, 2]

>  <tasks>  (199) 
probe_placing close_aromatic_ring close_aromatic_ring close_aromatic_ring close_aromatic_ring ring_built build_to_Nd0 close_aromatic_ring no_task build_to_Nd0 build_DB_to_Cs2 build_SB_to_Cs2 close_aromatic_ring close_aromatic_ring close_aromatic_ring close_aromatic_ring

>  <prot_clashes>  (199) 
4

>  <NBS phar>  (199) 
0.3

>  <NBS_non-phar>  (199) 
0.658299446105957

>  <NBS>  (199) 
0.9582994461059571

>  <source_stage>  (199) 
scored

>  <source_iter>  (199) 
15

>  <source_parent_mol>  (199) 
0

>  <source_scenario>  (199) 
1 1 2 1 0 0 0 0 1 0 1 0 1 1 0

>  <source_rank_in_scored_call>  (199) 
1

>  <source_current_task>  (199) 
close_aromatic_ring

>  <scenario>  (199) 
1 1 2 1 0 0 0 0 1 0 1 0 1 1

>  <current_task>  (199) 
no_task

$$$$

     RDKit          3D

 16 18  0  0  0  0  0  0  0  0999 V2000
  -27.9030   -6.4410  -32.2050 C   0  0  0  0  0  0  0  0  0  0  0  0
  -27.3080   -5.4300  -32.8940 N   0  0  0  0  0  0  0  0  0  0  0  0
  -28.0670   -7.7640  -32.4380 N   0  0  0  0  0  0  0  0  0  0  0  0
  -27.3080   -4.1630  -32.3850 C   0  0  0  0  0  0  0  0  0  0  0  0
  -27.9050   -3.8800  -31.1740 C   0  0  0  0  0  0  0  0  0  0  0  0
  -28.4950   -4.8800  -30.4880 N   0  0  0  0  0  0  0  0  0  0  0  0
  -28.4970   -6.1230  -30.9850 C   0  0  0  0  0  0  0  0  0  0  0  0
  -28.7430   -8.3280  -31.4180 C   0  0  0  0  0  0  0  0  0  0  0  0
  -29.0110   -7.3100  -30.5170 C   0  0  0  0  0  0  0  0  0  0  0  0
  -28.0520   -2.5440  -30.4000 C   0  0  0  0  0  0  0  0  0  0  0  0
  -27.0370   -1.9750  -29.7740 C   0  0  0  0  0  0  0  0  0  0  0  0
  -27.1480   -0.7200  -29.0020 C   0  0  0  0  0  0  0  0  0  0  0  0
  -28.4980   -0.2010  -29.0240 N   0  0  0  0  0  0  0  0  0  0  0  0
  -29.5760   -0.8190  -29.6970 C   0  0  0  0  0  0  0  0  0  0  0  0
  -29.3830   -1.9490  -30.3660 C   0  0  0  0  0  0  0  0  0  0  0  0
  -26.1980   -0.1750  -28.4100 O   0  0  0  0  0  0  0  0  0  0  0  0
  1  2  2  0
  1  3  1  0
  1  7  1  0
  2  4  1  0
  3  8  1  0
  4  5  2  0
  5  6  1  0
  5 10  1  0
  6  7  2  0
  7  9  1  0
  8  9  2  0
 10 15  1  0
 10 11  2  0
 11 12  1  0
 12 13  1  0
 12 16  2  0
 13 14  1  0
 14 15  2  0
M  END
>  <name>  (200) 
Car Nac Nd0 Car Car Nac Car Car Car Car Car Car Nd0 Car Car .=O

>  <indices>  (200) 
[0, 1, 2]

>  <tasks>  (200) 
probe_placing close_aromatic_ring close_aromatic_ring close_aromatic_ring close_aromatic_ring ring_built build_to_Nd0 close_aromatic_ring no_task close_aromatic_ring close_aromatic_ring close_aromatic_ring close_aromatic_ring close_aromatic_ring

>  <prot_clashes>  (200) 
7

>  <NBS phar>  (200) 
0.25999999999999995

>  <NBS_non-phar>  (200) 
0.6207831501960754

>  <NBS>  (200) 
0.8807831501960754

>  <source_stage>  (200) 
scored

>  <source_iter>  (200) 
13

>  <source_parent_mol>  (200) 
0

>  <source_scenario>  (200) 
1 1 2 1 0 0 0 5 0 0 0 0 0

>  <source_rank_in_scored_call>  (200) 
0

>  <source_current_task>  (200) 
fix_Car

>  <scenario>  (200) 
1 1 2 1 0 0 0 5 0 0 0 0

>  <current_task>  (200) 
no_task

$$$$

     RDKit          3D

 16 18  0  0  0  0  0  0  0  0999 V2000
  -27.9980   -6.9110  -32.0420 C   0  0  0  0  0  0  0  0  0  0  0  0
  -27.6120   -5.9560  -32.9320 N   0  0  0  0  0  0  0  0  0  0  0  0
  -28.1020   -8.2590  -32.1010 N   0  0  0  0  0  0  0  0  0  0  0  0
  -27.6150   -4.6410  -32.5680 C   0  0  0  0  0  0  0  0  0  0  0  0
  -28.0050   -4.2510  -31.3030 C   0  0  0  0  0  0  0  0  0  0  0  0
  -28.3870   -5.1940  -30.4180 N   0  0  0  0  0  0  0  0  0  0  0  0
  -28.3860   -6.4850  -30.7730 C   0  0  0  0  0  0  0  0  0  0  0  0
  -28.5410   -8.7360  -30.9200 C   0  0  0  0  0  0  0  0  0  0  0  0
  -28.7180   -7.6350  -30.0960 C   0  0  0  0  0  0  0  0  0  0  0  0
  -28.1102   -2.8441  -30.6589 C   0  0  0  0  0  0  0  0  0  0  0  0
  -27.0441   -2.1521  -30.2958 C   0  0  0  0  0  0  0  0  0  0  0  0
  -27.1082   -0.8226  -29.6534 C   0  0  0  0  0  0  0  0  0  0  0  0
  -28.4748   -0.3836  -29.4766 N   0  0  0  0  0  0  0  0  0  0  0  0
  -29.6072   -1.1329  -29.8691 C   0  0  0  0  0  0  0  0  0  0  0  0
  -29.4544   -2.3211  -30.4407 C   0  0  0  0  0  0  0  0  0  0  0  0
  -26.1110   -0.1634  -29.3079 O   0  0  0  0  0  0  0  0  0  0  0  0
  1  2  2  0
  1  3  1  0
  1  7  1  0
  2  4  1  0
  3  8  1  0
  4  5  2  0
  5 10  1  0
  5  6  1  0
  6  7  2  0
  7  9  1  0
  8  9  2  0
 10 11  2  0
 11 12  1  0
 12 13  1  0
 13 14  1  0
 10 15  1  0
 14 15  2  0
 12 16  2  0
M  END
>  <name>  (201) 
Car Nac Nd0 Car Car Nac Car Car Car Car Car Car Nd0 Car Car .=O

>  <indices>  (201) 
[0, 1, 2]

>  <tasks>  (201) 
probe_placing close_aromatic_ring close_aromatic_ring close_aromatic_ring close_aromatic_ring ring_built build_to_Nd0 close_aromatic_ring no_task close_aromatic_ring close_aromatic_ring close_aromatic_ring close_aromatic_ring close_aromatic_ring

>  <prot_clashes>  (201) 
4

>  <NBS phar>  (201) 
0.18

>  <NBS_non-phar>  (201) 
0.5819963216781616

>  <NBS>  (201) 
0.7619963216781616

>  <source_stage>  (201) 
scored

>  <source_iter>  (201) 
13

>  <source_parent_mol>  (201) 
0

>  <source_scenario>  (201) 
1 1 2 1 0 0 0 5 0 0 0 0 0

>  <source_rank_in_scored_call>  (201) 
1

>  <source_current_task>  (201) 
fix_Car

>  <scenario>  (201) 
1 1 2 1 0 0 0 5 0 0 0 0

>  <current_task>  (201) 
no_task

$$$$

     RDKit          3D

 16 18  0  0  0  0  0  0  0  0999 V2000
  -27.7480   -6.8080  -31.9140 C   0  0  0  0  0  0  0  0  0  0  0  0
  -27.6880   -5.8590  -32.8890 N   0  0  0  0  0  0  0  0  0  0  0  0
  -27.7500   -8.1610  -31.9240 N   0  0  0  0  0  0  0  0  0  0  0  0
  -27.7060   -4.5360  -32.5570 C   0  0  0  0  0  0  0  0  0  0  0  0
  -27.7830   -4.1310  -31.2400 C   0  0  0  0  0  0  0  0  0  0  0  0
  -27.8410   -5.0670  -30.2710 N   0  0  0  0  0  0  0  0  0  0  0  0
  -27.8240   -6.3660  -30.5940 C   0  0  0  0  0  0  0  0  0  0  0  0
  -27.8250   -8.6260  -30.6610 C   0  0  0  0  0  0  0  0  0  0  0  0
  -27.8720   -7.5120  -29.8360 C   0  0  0  0  0  0  0  0  0  0  0  0
  -27.8900   -2.6790  -30.5960 C   0  0  0  0  0  0  0  0  0  0  0  0
  -26.8310   -1.8880  -30.5080 C   0  0  0  0  0  0  0  0  0  0  0  0
  -26.9380   -0.5700  -29.8880 C   0  0  0  0  0  0  0  0  0  0  0  0
  -28.0850   -0.1580  -29.4120 C   0  0  0  0  0  0  0  0  0  0  0  0
  -29.2200   -0.9970  -29.5020 N   0  0  0  0  0  0  0  0  0  0  0  0
  -29.2350   -2.3060  -30.0890 C   0  0  0  0  0  0  0  0  0  0  0  0
  -30.2410   -3.0330  -30.1620 O   0  0  0  0  0  0  0  0  0  0  0  0
  1  2  2  0
  1  3  1  0
  1  7  1  0
  2  4  1  0
  3  8  1  0
  4  5  2  0
  5 10  1  0
  5  6  1  0
  6  7  2  0
  7  9  1  0
  8  9  2  0
 10 11  2  0
 10 15  1  0
 11 12  1  0
 12 13  2  0
 13 14  1  0
 14 15  1  0
 15 16  2  0
M  END
>  <name>  (202) 
Car Nac Nd0 Car Car Nac Car Car Car Car Car Car Car Nd0 Car .=O

>  <indices>  (202) 
[0, 1, 2]

>  <tasks>  (202) 
probe_placing close_aromatic_ring close_aromatic_ring close_aromatic_ring close_aromatic_ring ring_built build_to_Nd0 close_aromatic_ring no_task close_aromatic_ring close_aromatic_ring close_aromatic_ring close_aromatic_ring close_aromatic_ring

>  <prot_clashes>  (202) 
4

>  <NBS phar>  (202) 
0.27999999999999997

>  <NBS_non-phar>  (202) 
0.6636145114898682

>  <NBS>  (202) 
0.9436145114898682

>  <source_stage>  (202) 
scored

>  <source_iter>  (202) 
13

>  <source_parent_mol>  (202) 
0

>  <source_scenario>  (202) 
1 1 2 1 0 0 0 5 0 0 1 0 0

>  <source_rank_in_scored_call>  (202) 
0

>  <source_current_task>  (202) 
fix_Car

>  <scenario>  (202) 
1 1 2 1 0 0 0 5 0 0 1 0

>  <current_task>  (202) 
no_task

$$$$

     RDKit          3D

 16 18  0  0  0  0  0  0  0  0999 V2000
  -27.7420   -6.8310  -31.9090 C   0  0  0  0  0  0  0  0  0  0  0  0
  -27.6440   -5.8720  -32.8710 N   0  0  0  0  0  0  0  0  0  0  0  0
  -27.7400   -8.1840  -31.9320 N   0  0  0  0  0  0  0  0  0  0  0  0
  -27.6800   -4.5530  -32.5280 C   0  0  0  0  0  0  0  0  0  0  0  0
  -27.8150   -4.1610  -31.2110 C   0  0  0  0  0  0  0  0  0  0  0  0
  -27.9120   -5.1060  -30.2550 N   0  0  0  0  0  0  0  0  0  0  0  0
  -27.8770   -6.4020  -30.5890 C   0  0  0  0  0  0  0  0  0  0  0  0
  -27.8670   -8.6610  -30.6780 C   0  0  0  0  0  0  0  0  0  0  0  0
  -27.9530   -7.5560  -29.8450 C   0  0  0  0  0  0  0  0  0  0  0  0
  -27.9550   -2.7150  -30.5590 C   0  0  0  0  0  0  0  0  0  0  0  0
  -26.9030   -1.9220  -30.4180 C   0  0  0  0  0  0  0  0  0  0  0  0
  -27.0410   -0.6110  -29.7900 C   0  0  0  0  0  0  0  0  0  0  0  0
  -28.2090   -0.2070  -29.3600 C   0  0  0  0  0  0  0  0  0  0  0  0
  -29.3360   -1.0480  -29.5070 N   0  0  0  0  0  0  0  0  0  0  0  0
  -29.3210   -2.3510  -30.1060 C   0  0  0  0  0  0  0  0  0  0  0  0
  -30.3214   -3.0805  -30.2297 O   0  0  0  0  0  0  0  0  0  0  0  0
  1  2  2  0
  1  3  1  0
  1  7  1  0
  2  4  1  0
  3  8  1  0
  4  5  2  0
  5 10  1  0
  5  6  1  0
  6  7  2  0
  7  9  1  0
  8  9  2  0
 10 11  2  0
 10 15  1  0
 11 12  1  0
 12 13  2  0
 13 14  1  0
 14 15  1  0
 15 16  2  0
M  END
>  <name>  (203) 
Car Nac Nd0 Car Car Nac Car Car Car Car Car Car Car Nd0 Car .=O

>  <indices>  (203) 
[0, 1, 2]

>  <tasks>  (203) 
probe_placing close_aromatic_ring close_aromatic_ring close_aromatic_ring close_aromatic_ring ring_built build_to_Nd0 close_aromatic_ring no_task close_aromatic_ring close_aromatic_ring close_aromatic_ring close_aromatic_ring close_aromatic_ring

>  <prot_clashes>  (203) 
4

>  <NBS phar>  (203) 
0.25999999999999995

>  <NBS_non-phar>  (203) 
0.6551398038864136

>  <NBS>  (203) 
0.9151398038864136

>  <source_stage>  (203) 
scored

>  <source_iter>  (203) 
13

>  <source_parent_mol>  (203) 
0

>  <source_scenario>  (203) 
1 1 2 1 0 0 0 5 0 0 1 0 0

>  <source_rank_in_scored_call>  (203) 
1

>  <source_current_task>  (203) 
fix_Car

>  <scenario>  (203) 
1 1 2 1 0 0 0 5 0 0 1 0

>  <current_task>  (203) 
no_task

$$$$

     RDKit          3D

 15 17  0  0  0  0  0  0  0  0999 V2000
  -27.9120   -6.9080  -31.8990 C   0  0  0  0  0  0  0  0  0  0  0  0
  -27.6950   -5.9540  -32.8460 N   0  0  0  0  0  0  0  0  0  0  0  0
  -27.9350   -8.2610  -31.9210 N   0  0  0  0  0  0  0  0  0  0  0  0
  -27.7390   -4.6330  -32.5090 C   0  0  0  0  0  0  0  0  0  0  0  0
  -28.0020   -4.2350  -31.2140 C   0  0  0  0  0  0  0  0  0  0  0  0
  -28.2170   -5.1760  -30.2730 N   0  0  0  0  0  0  0  0  0  0  0  0
  -28.1750   -6.4740  -30.6010 C   0  0  0  0  0  0  0  0  0  0  0  0
  -28.2010   -8.7320  -30.6870 C   0  0  0  0  0  0  0  0  0  0  0  0
  -28.3510   -7.6240  -29.8680 C   0  0  0  0  0  0  0  0  0  0  0  0
  -28.1438   -2.8475  -30.5585 C   0  0  0  0  0  0  0  0  0  0  0  0
  -27.0972   -1.9861  -30.3276 C   0  0  0  0  0  0  0  0  0  0  0  0
  -27.3074   -0.7387  -29.7665 C   0  0  0  0  0  0  0  0  0  0  0  0
  -28.6077   -0.3969  -29.4495 C   0  0  0  0  0  0  0  0  0  0  0  0
  -29.6612   -1.2532  -29.6774 C   0  0  0  0  0  0  0  0  0  0  0  0
  -29.4411   -2.4929  -30.2365 C   0  0  0  0  0  0  0  0  0  0  0  0
  1  2  2  0
  1  3  1  0
  1  7  1  0
  2  4  1  0
  3  8  1  0
  4  5  2  0
  5 10  1  0
  5  6  1  0
  6  7  2  0
  7  9  1  0
  8  9  2  0
 10 11  2  0
 11 12  1  0
 12 13  2  0
 13 14  1  0
 10 15  1  0
 14 15  2  0
M  END
>  <name>  (204) 
Car Nac Nd0 Car Car Nac Car Car Car Car Car Car Car Car Car

>  <indices>  (204) 
[0, 1, 2]

>  <tasks>  (204) 
probe_placing close_aromatic_ring close_aromatic_ring close_aromatic_ring close_aromatic_ring ring_built build_to_Nd0 close_aromatic_ring no_task close_aromatic_ring close_aromatic_ring close_aromatic_ring close_aromatic_ring

>  <prot_clashes>  (204) 
4

>  <NBS phar>  (204) 
0.12

>  <NBS_non-phar>  (204) 
0.5785789489746094

>  <NBS>  (204) 
0.6985789489746094

>  <source_stage>  (204) 
scored

>  <source_iter>  (204) 
12

>  <source_parent_mol>  (204) 
1

>  <source_scenario>  (204) 
1 1 2 1 0 0 0 5 0 0 1 1

>  <source_rank_in_scored_call>  (204) 
0

>  <source_current_task>  (204) 
close_aromatic_ring

>  <scenario>  (204) 
1 1 2 1 0 0 0 5 0 0 1

>  <current_task>  (204) 
no_task

$$$$

     RDKit          3D

 15 17  0  0  0  0  0  0  0  0999 V2000
  -28.0250   -6.6800  -32.0640 C   0  0  0  0  0  0  0  0  0  0  0  0
  -27.5750   -5.7190  -32.9160 N   0  0  0  0  0  0  0  0  0  0  0  0
  -28.1610   -8.0240  -32.1560 N   0  0  0  0  0  0  0  0  0  0  0  0
  -27.5600   -4.4120  -32.5260 C   0  0  0  0  0  0  0  0  0  0  0  0
  -27.9960   -4.0360  -31.2720 C   0  0  0  0  0  0  0  0  0  0  0  0
  -28.4410   -4.9840  -30.4250 N   0  0  0  0  0  0  0  0  0  0  0  0
  -28.4580   -6.2690  -30.8050 C   0  0  0  0  0  0  0  0  0  0  0  0
  -28.6640   -8.5100  -31.0040 C   0  0  0  0  0  0  0  0  0  0  0  0
  -28.8500   -7.4220  -30.1670 C   0  0  0  0  0  0  0  0  0  0  0  0
  -28.1230   -2.6650  -30.5800 C   0  0  0  0  0  0  0  0  0  0  0  0
  -27.0570   -1.9120  -30.1440 C   0  0  0  0  0  0  0  0  0  0  0  0
  -27.2480   -0.6710  -29.5630 C   0  0  0  0  0  0  0  0  0  0  0  0
  -28.5490   -0.2210  -29.4420 C   0  0  0  0  0  0  0  0  0  0  0  0
  -29.6200   -0.9670  -29.8750 C   0  0  0  0  0  0  0  0  0  0  0  0
  -29.4200   -2.2020  -30.4520 C   0  0  0  0  0  0  0  0  0  0  0  0
  1  2  2  0
  1  3  1  0
  1  7  1  0
  2  4  1  0
  3  8  1  0
  4  5  2  0
  5 10  1  0
  5  6  1  0
  6  7  2  0
  7  9  1  0
  8  9  2  0
 10 15  1  0
 10 11  2  0
 11 12  1  0
 12 13  2  0
 13 14  1  0
 14 15  2  0
M  END
>  <name>  (205) 
Car Nac Nd0 Car Car Nac Car Car Car Car Car Car Car Car Car

>  <indices>  (205) 
[0, 1, 2]

>  <tasks>  (205) 
probe_placing close_aromatic_ring close_aromatic_ring close_aromatic_ring close_aromatic_ring ring_built build_to_Nd0 close_aromatic_ring no_task close_aromatic_ring close_aromatic_ring close_aromatic_ring close_aromatic_ring

>  <prot_clashes>  (205) 
6

>  <NBS phar>  (205) 
0.15999999999999998

>  <NBS_non-phar>  (205) 
0.5219305992126465

>  <NBS>  (205) 
0.6819305992126465

>  <source_stage>  (205) 
scored

>  <source_iter>  (205) 
12

>  <source_parent_mol>  (205) 
1

>  <source_scenario>  (205) 
1 1 2 1 0 0 0 5 0 0 1 1

>  <source_rank_in_scored_call>  (205) 
1

>  <source_current_task>  (205) 
close_aromatic_ring

>  <scenario>  (205) 
1 1 2 1 0 0 0 5 0 0 1

>  <current_task>  (205) 
no_task

$$$$

     RDKit          3D

 15 17  0  0  0  0  0  0  0  0999 V2000
  -27.7390   -7.0670  -31.8060 C   0  0  0  0  0  0  0  0  0  0  0  0
  -27.5700   -6.1720  -32.8180 N   0  0  0  0  0  0  0  0  0  0  0  0
  -27.7270   -8.4180  -31.7400 N   0  0  0  0  0  0  0  0  0  0  0  0
  -27.6400   -4.8330  -32.5660 C   0  0  0  0  0  0  0  0  0  0  0  0
  -27.8800   -4.3580  -31.2920 C   0  0  0  0  0  0  0  0  0  0  0  0
  -28.0470   -5.2410  -30.2870 N   0  0  0  0  0  0  0  0  0  0  0  0
  -27.9790   -6.5560  -30.5320 C   0  0  0  0  0  0  0  0  0  0  0  0
  -27.9500   -8.8150  -30.4720 C   0  0  0  0  0  0  0  0  0  0  0  0
  -28.1070   -7.6590  -29.7220 C   0  0  0  0  0  0  0  0  0  0  0  0
  -28.0190   -3.0450  -30.7100 C   0  0  0  0  0  0  0  0  0  0  0  0
  -27.0290   -2.0890  -30.5620 C   0  0  0  0  0  0  0  0  0  0  0  0
  -29.3010   -2.7020  -30.3340 C   0  0  0  0  0  0  0  0  0  0  0  0
  -27.2750   -0.8260  -30.0610 C   0  0  0  0  0  0  0  0  0  0  0  0
  -28.5670   -0.5130  -29.6940 C   0  0  0  0  0  0  0  0  0  0  0  0
  -29.5940   -1.4530  -29.8280 C   0  0  0  0  0  0  0  0  0  0  0  0
  1  2  2  0
  1  3  1  0
  1  7  1  0
  2  4  1  0
  3  8  1  0
  4  5  2  0
  5 10  1  0
  5  6  1  0
  6  7  2  0
  7  9  1  0
  8  9  2  0
 10 11  2  0
 10 12  1  0
 11 13  1  0
 12 15  2  0
 13 14  2  0
 14 15  1  0
M  END
>  <name>  (206) 
Car Nac Nd0 Car Car Nac Car Car Car Car Car Car Car Car Car

>  <indices>  (206) 
[0, 1, 2]

>  <tasks>  (206) 
probe_placing close_aromatic_ring close_aromatic_ring close_aromatic_ring close_aromatic_ring ring_built build_to_Nd0 close_aromatic_ring no_task close_aromatic_ring close_aromatic_ring close_aromatic_ring close_aromatic_ring

>  <prot_clashes>  (206) 
6

>  <NBS phar>  (206) 
0.26000000000000006

>  <NBS_non-phar>  (206) 
0.6030644734700521

>  <NBS>  (206) 
0.8630644734700521

>  <source_stage>  (206) 
scored

>  <source_iter>  (206) 
12

>  <source_parent_mol>  (206) 
1

>  <source_scenario>  (206) 
1 1 2 1 0 0 0 5 0 2 0 1

>  <source_rank_in_scored_call>  (206) 
0

>  <source_current_task>  (206) 
close_aromatic_ring

>  <scenario>  (206) 
1 1 2 1 0 0 0 5 0 2 0

>  <current_task>  (206) 
no_task

$$$$

     RDKit          3D

 15 17  0  0  0  0  0  0  0  0999 V2000
  -28.0030   -6.5750  -31.9110 C   0  0  0  0  0  0  0  0  0  0  0  0
  -27.6550   -5.6780  -32.8750 N   0  0  0  0  0  0  0  0  0  0  0  0
  -28.1520   -7.9200  -31.8940 N   0  0  0  0  0  0  0  0  0  0  0  0
  -27.5890   -4.3480  -32.5800 C   0  0  0  0  0  0  0  0  0  0  0  0
  -27.8690   -3.8840  -31.3100 C   0  0  0  0  0  0  0  0  0  0  0  0
  -28.2130   -4.7680  -30.3520 N   0  0  0  0  0  0  0  0  0  0  0  0
  -28.2790   -6.0750  -30.6400 C   0  0  0  0  0  0  0  0  0  0  0  0
  -28.5150   -8.3230  -30.6610 C   0  0  0  0  0  0  0  0  0  0  0  0
  -28.5950   -7.1780  -29.8820 C   0  0  0  0  0  0  0  0  0  0  0  0
  -27.8940   -2.5860  -30.6890 C   0  0  0  0  0  0  0  0  0  0  0  0
  -26.8040   -1.7230  -30.5330 C   0  0  0  0  0  0  0  0  0  0  0  0
  -29.1120   -2.1380  -30.1840 C   0  0  0  0  0  0  0  0  0  0  0  0
  -26.9360   -0.4940  -29.9100 C   0  0  0  0  0  0  0  0  0  0  0  0
  -28.1620   -0.0870  -29.4230 C   0  0  0  0  0  0  0  0  0  0  0  0
  -29.2550   -0.9200  -29.5630 C   0  0  0  0  0  0  0  0  0  0  0  0
  1  2  2  0
  1  3  1  0
  1  7  1  0
  2  4  1  0
  3  8  1  0
  4  5  2  0
  5 10  1  0
  5  6  1  0
  6  7  2  0
  7  9  1  0
  8  9  2  0
 10 11  2  0
 10 12  1  0
 11 13  1  0
 12 15  2  0
 13 14  2  0
 14 15  1  0
M  END
>  <name>  (207) 
Car Nac Nd0 Car Car Nac Car Car Car Car Car Car Car Car Car

>  <indices>  (207) 
[0, 1, 2]

>  <tasks>  (207) 
probe_placing close_aromatic_ring close_aromatic_ring close_aromatic_ring close_aromatic_ring ring_built build_to_Nd0 close_aromatic_ring no_task close_aromatic_ring close_aromatic_ring close_aromatic_ring close_aromatic_ring

>  <prot_clashes>  (207) 
6

>  <NBS phar>  (207) 
0.13999999999999999

>  <NBS_non-phar>  (207) 
0.6275833129882813

>  <NBS>  (207) 
0.7675833129882813

>  <source_stage>  (207) 
scored

>  <source_iter>  (207) 
12

>  <source_parent_mol>  (207) 
1

>  <source_scenario>  (207) 
1 1 2 1 0 0 0 5 0 2 0 1

>  <source_rank_in_scored_call>  (207) 
1

>  <source_current_task>  (207) 
close_aromatic_ring

>  <scenario>  (207) 
1 1 2 1 0 0 0 5 0 2 0

>  <current_task>  (207) 
no_task

$$$$

     RDKit          3D

 15 17  0  0  0  0  0  0  0  0999 V2000
  -27.6770   -7.3080  -31.8130 C   0  0  0  0  0  0  0  0  0  0  0  0
  -27.6940   -6.4020  -32.8290 N   0  0  0  0  0  0  0  0  0  0  0  0
  -27.5860   -8.6570  -31.7620 N   0  0  0  0  0  0  0  0  0  0  0  0
  -27.7990   -5.0700  -32.5560 C   0  0  0  0  0  0  0  0  0  0  0  0
  -27.8910   -4.6120  -31.2570 C   0  0  0  0  0  0  0  0  0  0  0  0
  -27.8740   -5.5060  -30.2470 N   0  0  0  0  0  0  0  0  0  0  0  0
  -27.7710   -6.8140  -30.5120 C   0  0  0  0  0  0  0  0  0  0  0  0
  -27.6150   -9.0690  -30.4800 C   0  0  0  0  0  0  0  0  0  0  0  0
  -27.7300   -7.9260  -29.7040 C   0  0  0  0  0  0  0  0  0  0  0  0
  -28.0516   -3.2659  -30.7135 C   0  0  0  0  0  0  0  0  0  0  0  0
  -29.1616   -3.0600  -29.8958 C   0  0  0  0  0  0  0  0  0  0  0  0
  -27.0868   -2.2732  -30.7057 C   0  0  0  0  0  0  0  0  0  0  0  0
  -29.2935   -1.9255  -29.1178 C   0  0  0  0  0  0  0  0  0  0  0  0
  -27.2057   -1.1338  -29.9328 C   0  0  0  0  0  0  0  0  0  0  0  0
  -28.3158   -0.9522  -29.1299 C   0  0  0  0  0  0  0  0  0  0  0  0
  1  2  2  0
  1  3  1  0
  1  7  1  0
  2  4  1  0
  3  8  1  0
  4  5  2  0
  5 10  1  0
  5  6  1  0
  6  7  2  0
  7  9  1  0
  8  9  2  0
 10 12  1  0
 10 11  2  0
 12 14  2  0
 11 13  1  0
 13 15  2  0
 14 15  1  0
M  END
>  <name>  (208) 
Car Nac Nd0 Car Car Nac Car Car Car Car Car Car Car Car Car

>  <indices>  (208) 
[0, 1, 2]

>  <tasks>  (208) 
probe_placing close_aromatic_ring close_aromatic_ring close_aromatic_ring close_aromatic_ring ring_built build_to_Nd0 close_aromatic_ring no_task close_aromatic_ring close_aromatic_ring close_aromatic_ring close_aromatic_ring

>  <prot_clashes>  (208) 
6

>  <NBS phar>  (208) 
0.26000000000000006

>  <NBS_non-phar>  (208) 
0.6114295959472656

>  <NBS>  (208) 
0.8714295959472658

>  <source_stage>  (208) 
scored

>  <source_iter>  (208) 
12

>  <source_parent_mol>  (208) 
3

>  <source_scenario>  (208) 
1 1 2 1 0 0 0 5 0 2 0 3

>  <source_rank_in_scored_call>  (208) 
0

>  <source_current_task>  (208) 
close_aromatic_ring

>  <scenario>  (208) 
1 1 2 1 0 0 0 5 0 2 0

>  <current_task>  (208) 
no_task

$$$$

     RDKit          3D

 15 17  0  0  0  0  0  0  0  0999 V2000
  -27.6770   -7.3080  -31.8130 C   0  0  0  0  0  0  0  0  0  0  0  0
  -27.6940   -6.4020  -32.8290 N   0  0  0  0  0  0  0  0  0  0  0  0
  -27.5860   -8.6570  -31.7620 N   0  0  0  0  0  0  0  0  0  0  0  0
  -27.7990   -5.0700  -32.5560 C   0  0  0  0  0  0  0  0  0  0  0  0
  -27.8910   -4.6120  -31.2570 C   0  0  0  0  0  0  0  0  0  0  0  0
  -27.8740   -5.5060  -30.2470 N   0  0  0  0  0  0  0  0  0  0  0  0
  -27.7710   -6.8140  -30.5120 C   0  0  0  0  0  0  0  0  0  0  0  0
  -27.6150   -9.0690  -30.4800 C   0  0  0  0  0  0  0  0  0  0  0  0
  -27.7300   -7.9260  -29.7040 C   0  0  0  0  0  0  0  0  0  0  0  0
  -28.0326   -3.2758  -30.6322 C   0  0  0  0  0  0  0  0  0  0  0  0
  -29.1753   -3.0827  -29.9018 C   0  0  0  0  0  0  0  0  0  0  0  0
  -27.0819   -2.2673  -30.7151 C   0  0  0  0  0  0  0  0  0  0  0  0
  -29.3811   -1.8888  -29.2499 C   0  0  0  0  0  0  0  0  0  0  0  0
  -27.2678   -1.0626  -30.0697 C   0  0  0  0  0  0  0  0  0  0  0  0
  -28.4268   -0.8945  -29.3413 C   0  0  0  0  0  0  0  0  0  0  0  0
  1  2  2  0
  1  3  1  0
  1  7  1  0
  2  4  1  0
  3  8  1  0
  4  5  2  0
  5 10  1  0
  5  6  1  0
  6  7  2  0
  7  9  1  0
  8  9  2  0
 10 12  1  0
 10 11  2  0
 12 14  2  0
 11 13  1  0
 14 15  1  0
 13 15  2  0
M  END
>  <name>  (209) 
Car Nac Nd0 Car Car Nac Car Car Car Car Car Car Car Car Car

>  <indices>  (209) 
[0, 1, 2]

>  <tasks>  (209) 
probe_placing close_aromatic_ring close_aromatic_ring close_aromatic_ring close_aromatic_ring ring_built build_to_Nd0 close_aromatic_ring no_task close_aromatic_ring close_aromatic_ring close_aromatic_ring close_aromatic_ring

>  <prot_clashes>  (209) 
7

>  <NBS phar>  (209) 
0.26000000000000006

>  <NBS_non-phar>  (209) 
0.5858691533406576

>  <NBS>  (209) 
0.8458691533406577

>  <source_stage>  (209) 
scored

>  <source_iter>  (209) 
12

>  <source_parent_mol>  (209) 
3

>  <source_scenario>  (209) 
1 1 2 1 0 0 0 5 0 2 0 3

>  <source_rank_in_scored_call>  (209) 
1

>  <source_current_task>  (209) 
close_aromatic_ring

>  <scenario>  (209) 
1 1 2 1 0 0 0 5 0 2 0

>  <current_task>  (209) 
no_task

$$$$

     RDKit          3D

 15 17  0  0  0  0  0  0  0  0999 V2000
  -27.9180   -6.7120  -31.8650 C   0  0  0  0  0  0  0  0  0  0  0  0
  -27.6480   -5.8180  -32.8550 N   0  0  0  0  0  0  0  0  0  0  0  0
  -27.9630   -8.0630  -31.8090 N   0  0  0  0  0  0  0  0  0  0  0  0
  -27.6820   -4.4790  -32.5970 C   0  0  0  0  0  0  0  0  0  0  0  0
  -27.9900   -4.0030  -31.3380 C   0  0  0  0  0  0  0  0  0  0  0  0
  -28.2580   -4.8850  -30.3540 N   0  0  0  0  0  0  0  0  0  0  0  0
  -28.2250   -6.2000  -30.6050 C   0  0  0  0  0  0  0  0  0  0  0  0
  -28.2860   -8.4590  -30.5630 C   0  0  0  0  0  0  0  0  0  0  0  0
  -28.4490   -7.3030  -29.8150 C   0  0  0  0  0  0  0  0  0  0  0  0
  -28.1330   -2.6430  -30.8250 C   0  0  0  0  0  0  0  0  0  0  0  0
  -29.3600   -2.3280  -30.2450 C   0  0  0  0  0  0  0  0  0  0  0  0
  -27.1020   -1.7430  -30.6150 C   0  0  0  0  0  0  0  0  0  0  0  0
  -29.5410   -1.1790  -29.4990 C   0  0  0  0  0  0  0  0  0  0  0  0
  -27.2680   -0.5900  -29.8710 C   0  0  0  0  0  0  0  0  0  0  0  0
  -28.4950   -0.3000  -29.3050 C   0  0  0  0  0  0  0  0  0  0  0  0
  1  2  2  0
  1  3  1  0
  1  7  1  0
  2  4  1  0
  3  8  1  0
  4  5  2  0
  5 10  1  0
  5  6  1  0
  6  7  2  0
  7  9  1  0
  8  9  2  0
 10 12  1  0
 10 11  2  0
 11 13  1  0
 12 14  2  0
 13 15  2  0
 14 15  1  0
M  END
>  <name>  (210) 
Car Nac Nd0 Car Car Nac Car Car Car Car Car Car Car Car Car

>  <indices>  (210) 
[0, 1, 2]

>  <tasks>  (210) 
probe_placing close_aromatic_ring close_aromatic_ring close_aromatic_ring close_aromatic_ring ring_built build_to_Nd0 close_aromatic_ring no_task close_aromatic_ring close_aromatic_ring close_aromatic_ring close_aromatic_ring

>  <prot_clashes>  (210) 
5

>  <NBS phar>  (210) 
0.15999999999999998

>  <NBS_non-phar>  (210) 
0.6070661544799805

>  <NBS>  (210) 
0.7670661544799804

>  <source_stage>  (210) 
scored

>  <source_iter>  (210) 
12

>  <source_parent_mol>  (210) 
3

>  <source_scenario>  (210) 
1 1 2 1 0 0 0 5 0 2 0 3

>  <source_rank_in_scored_call>  (210) 
3

>  <source_current_task>  (210) 
close_aromatic_ring

>  <scenario>  (210) 
1 1 2 1 0 0 0 5 0 2 0

>  <current_task>  (210) 
no_task

$$$$

     RDKit          3D

 15 17  0  0  0  0  0  0  0  0999 V2000
  -28.0280   -6.6680  -32.0660 C   0  0  0  0  0  0  0  0  0  0  0  0
  -27.5660   -5.7350  -32.9430 N   0  0  0  0  0  0  0  0  0  0  0  0
  -28.1980   -8.0090  -32.1280 N   0  0  0  0  0  0  0  0  0  0  0  0
  -27.5130   -4.4220  -32.5800 C   0  0  0  0  0  0  0  0  0  0  0  0
  -27.9240   -4.0100  -31.3280 C   0  0  0  0  0  0  0  0  0  0  0  0
  -28.3830   -4.9310  -30.4560 N   0  0  0  0  0  0  0  0  0  0  0  0
  -28.4350   -6.2210  -30.8100 C   0  0  0  0  0  0  0  0  0  0  0  0
  -28.6990   -8.4610  -30.9620 C   0  0  0  0  0  0  0  0  0  0  0  0
  -28.8470   -7.3510  -30.1440 C   0  0  0  0  0  0  0  0  0  0  0  0
  -28.0160   -2.7000  -30.6420 C   0  0  0  0  0  0  0  0  0  0  0  0
  -29.2750   -2.3130  -30.2710 C   0  0  0  0  0  0  0  0  0  0  0  0
  -26.9230   -1.8990  -30.3340 C   0  0  0  0  0  0  0  0  0  0  0  0
  -29.4600   -1.1310  -29.5920 C   0  0  0  0  0  0  0  0  0  0  0  0
  -27.0850   -0.7100  -29.6550 C   0  0  0  0  0  0  0  0  0  0  0  0
  -28.3650   -0.3430  -29.2920 C   0  0  0  0  0  0  0  0  0  0  0  0
  1  2  2  0
  1  3  1  0
  1  7  1  0
  2  4  1  0
  3  8  1  0
  4  5  2  0
  5 10  1  0
  5  6  1  0
  6  7  2  0
  7  9  1  0
  8  9  2  0
 10 12  1  0
 10 11  2  0
 11 13  1  0
 12 14  2  0
 13 15  2  0
 14 15  1  0
M  END
>  <name>  (211) 
Car Nac Nd0 Car Car Nac Car Car Car Car Car Car Car Car Car

>  <indices>  (211) 
[0, 1, 2]

>  <tasks>  (211) 
probe_placing close_aromatic_ring close_aromatic_ring close_aromatic_ring close_aromatic_ring ring_built build_to_Nd0 close_aromatic_ring no_task close_aromatic_ring close_aromatic_ring close_aromatic_ring close_aromatic_ring

>  <prot_clashes>  (211) 
7

>  <NBS phar>  (211) 
0.13999999999999999

>  <NBS_non-phar>  (211) 
0.5366506576538086

>  <NBS>  (211) 
0.6766506576538086

>  <source_stage>  (211) 
scored

>  <source_iter>  (211) 
12

>  <source_parent_mol>  (211) 
3

>  <source_scenario>  (211) 
1 1 2 1 0 0 0 5 0 2 0 3

>  <source_rank_in_scored_call>  (211) 
5

>  <source_current_task>  (211) 
close_aromatic_ring

>  <scenario>  (211) 
1 1 2 1 0 0 0 5 0 2 0

>  <current_task>  (211) 
no_task

$$$$

     RDKit          3D

 16 18  0  0  0  0  0  0  0  0999 V2000
  -27.8500   -6.9270  -31.8650 C   0  0  0  0  0  0  0  0  0  0  0  0
  -27.6470   -6.0190  -32.8600 N   0  0  0  0  0  0  0  0  0  0  0  0
  -27.8960   -8.2780  -31.8260 N   0  0  0  0  0  0  0  0  0  0  0  0
  -27.6580   -4.6840  -32.5810 C   0  0  0  0  0  0  0  0  0  0  0  0
  -27.8740   -4.2240  -31.2980 C   0  0  0  0  0  0  0  0  0  0  0  0
  -28.0760   -5.1190  -30.3100 N   0  0  0  0  0  0  0  0  0  0  0  0
  -28.0660   -6.4300  -30.5800 C   0  0  0  0  0  0  0  0  0  0  0  0
  -28.1320   -8.6900  -30.5650 C   0  0  0  0  0  0  0  0  0  0  0  0
  -28.2380   -7.5440  -29.7920 C   0  0  0  0  0  0  0  0  0  0  0  0
  -27.8840   -2.8900  -30.6960 C   0  0  0  0  0  0  0  0  0  0  0  0
  -26.8910   -2.0500  -30.6590 C   0  0  0  0  0  0  0  0  0  0  0  0
  -29.1640   -2.5350  -30.0720 C   0  0  0  0  0  0  0  0  0  0  0  0
  -27.0280   -0.7850  -30.0210 N   0  0  0  0  0  0  0  0  0  0  0  0
  -28.2470   -0.3450  -29.3790 C   0  0  0  0  0  0  0  0  0  0  0  0
  -29.3100   -1.3780  -29.4820 C   0  0  0  0  0  0  0  0  0  0  0  0
  -28.3880    0.7550  -28.8140 O   0  0  0  0  0  0  0  0  0  0  0  0
  1  2  2  0
  1  3  1  0
  1  7  1  0
  2  4  1  0
  3  8  1  0
  4  5  2  0
  5 10  1  0
  5  6  1  0
  6  7  2  0
  7  9  1  0
  8  9  2  0
 10 11  2  0
 10 12  1  0
 11 13  1  0
 12 15  2  0
 13 14  1  0
 14 15  1  0
 14 16  2  0
M  END
>  <name>  (212) 
Car Nac Nd0 Car Car Nac Car Car Car Car Car Car Nd0 Car Car .=O

>  <indices>  (212) 
[0, 1, 2]

>  <tasks>  (212) 
probe_placing close_aromatic_ring close_aromatic_ring close_aromatic_ring close_aromatic_ring ring_built build_to_Nd0 close_aromatic_ring no_task close_aromatic_ring close_aromatic_ring close_aromatic_ring close_aromatic_ring close_aromatic_ring

>  <prot_clashes>  (212) 
5

>  <NBS phar>  (212) 
0.24000000000000005

>  <NBS_non-phar>  (212) 
0.5700652599334717

>  <NBS>  (212) 
0.8100652599334717

>  <source_stage>  (212) 
scored

>  <source_iter>  (212) 
13

>  <source_parent_mol>  (212) 
0

>  <source_scenario>  (212) 
1 1 2 1 0 0 0 5 0 2 1 0 0

>  <source_rank_in_scored_call>  (212) 
0

>  <source_current_task>  (212) 
fix_Car

>  <scenario>  (212) 
1 1 2 1 0 0 0 5 0 2 1 0

>  <current_task>  (212) 
no_task

$$$$

     RDKit          3D

 16 18  0  0  0  0  0  0  0  0999 V2000
  -27.6700   -7.0760  -31.8530 C   0  0  0  0  0  0  0  0  0  0  0  0
  -27.4970   -6.1820  -32.8660 N   0  0  0  0  0  0  0  0  0  0  0  0
  -27.6580   -8.4270  -31.7850 N   0  0  0  0  0  0  0  0  0  0  0  0
  -27.5680   -4.8430  -32.6160 C   0  0  0  0  0  0  0  0  0  0  0  0
  -27.8150   -4.3660  -31.3450 C   0  0  0  0  0  0  0  0  0  0  0  0
  -27.9870   -5.2470  -30.3390 N   0  0  0  0  0  0  0  0  0  0  0  0
  -27.9180   -6.5620  -30.5810 C   0  0  0  0  0  0  0  0  0  0  0  0
  -27.8870   -8.8220  -30.5170 C   0  0  0  0  0  0  0  0  0  0  0  0
  -28.0490   -7.6650  -29.7700 C   0  0  0  0  0  0  0  0  0  0  0  0
  -27.8870   -3.0210  -30.7720 C   0  0  0  0  0  0  0  0  0  0  0  0
  -26.9320   -2.1380  -30.7460 C   0  0  0  0  0  0  0  0  0  0  0  0
  -29.1870   -2.7080  -30.1660 C   0  0  0  0  0  0  0  0  0  0  0  0
  -27.1280   -0.8670  -30.1360 N   0  0  0  0  0  0  0  0  0  0  0  0
  -28.3710   -0.4660  -29.5130 C   0  0  0  0  0  0  0  0  0  0  0  0
  -29.3870   -1.5460  -29.6020 C   0  0  0  0  0  0  0  0  0  0  0  0
  -28.5635    0.6386  -28.9735 O   0  0  0  0  0  0  0  0  0  0  0  0
  1  2  2  0
  1  3  1  0
  1  7  1  0
  2  4  1  0
  3  8  1  0
  4  5  2  0
  5 10  1  0
  5  6  1  0
  6  7  2  0
  7  9  1  0
  8  9  2  0
 10 11  2  0
 10 12  1  0
 11 13  1  0
 12 15  2  0
 13 14  1  0
 14 15  1  0
 14 16  2  0
M  END
>  <name>  (213) 
Car Nac Nd0 Car Car Nac Car Car Car Car Car Car Nd0 Car Car .=O

>  <indices>  (213) 
[0, 1, 2]

>  <tasks>  (213) 
probe_placing close_aromatic_ring close_aromatic_ring close_aromatic_ring close_aromatic_ring ring_built build_to_Nd0 close_aromatic_ring no_task close_aromatic_ring close_aromatic_ring close_aromatic_ring close_aromatic_ring close_aromatic_ring

>  <prot_clashes>  (213) 
5

>  <NBS phar>  (213) 
0.24000000000000005

>  <NBS_non-phar>  (213) 
0.5332915782928467

>  <NBS>  (213) 
0.7732915782928467

>  <source_stage>  (213) 
scored

>  <source_iter>  (213) 
13

>  <source_parent_mol>  (213) 
0

>  <source_scenario>  (213) 
1 1 2 1 0 0 0 5 0 2 1 0 0

>  <source_rank_in_scored_call>  (213) 
5

>  <source_current_task>  (213) 
fix_Car

>  <scenario>  (213) 
1 1 2 1 0 0 0 5 0 2 1 0

>  <current_task>  (213) 
no_task

$$$$

     RDKit          3D

 15 17  0  0  0  0  0  0  0  0999 V2000
  -27.7070   -7.3160  -31.8090 C   0  0  0  0  0  0  0  0  0  0  0  0
  -27.6860   -6.3940  -32.8110 N   0  0  0  0  0  0  0  0  0  0  0  0
  -27.6500   -8.6680  -31.7800 N   0  0  0  0  0  0  0  0  0  0  0  0
  -27.7630   -5.0640  -32.5170 C   0  0  0  0  0  0  0  0  0  0  0  0
  -27.8630   -4.6260  -31.2120 C   0  0  0  0  0  0  0  0  0  0  0  0
  -27.8840   -5.5350  -30.2170 N   0  0  0  0  0  0  0  0  0  0  0  0
  -27.8090   -6.8420  -30.5020 C   0  0  0  0  0  0  0  0  0  0  0  0
  -27.7080   -9.1000  -30.5050 C   0  0  0  0  0  0  0  0  0  0  0  0
  -27.8070   -7.9670  -29.7120 C   0  0  0  0  0  0  0  0  0  0  0  0
  -27.9728   -3.2342  -30.6142 C   0  0  0  0  0  0  0  0  0  0  0  0
  -26.9613   -2.3103  -30.5434 C   0  0  0  0  0  0  0  0  0  0  0  0
  -29.1382   -3.0507  -29.8668 C   0  0  0  0  0  0  0  0  0  0  0  0
  -29.2482   -1.9276  -29.0617 C   0  0  0  0  0  0  0  0  0  0  0  0
  -28.2239   -0.9957  -28.9924 C   0  0  0  0  0  0  0  0  0  0  0  0
  -27.0700   -1.1917  -29.7420 C   0  0  0  0  0  0  0  0  0  0  0  0
  1  2  2  0
  1  3  1  0
  1  7  1  0
  2  4  1  0
  3  8  1  0
  4  5  2  0
  5 10  1  0
  5  6  1  0
  6  7  2  0
  7  9  1  0
  8  9  2  0
 10 11  2  0
 10 12  1  0
 12 13  2  0
 13 14  1  0
 11 15  1  0
 14 15  2  0
M  END
>  <name>  (214) 
Car Nac Nd0 Car Car Nac Car Car Car Car Car Car Car Car Car

>  <indices>  (214) 
[0, 1, 2]

>  <tasks>  (214) 
probe_placing close_aromatic_ring close_aromatic_ring close_aromatic_ring close_aromatic_ring ring_built build_to_Nd0 close_aromatic_ring no_task close_aromatic_ring close_aromatic_ring close_aromatic_ring close_aromatic_ring

>  <prot_clashes>  (214) 
5

>  <NBS phar>  (214) 
0.26000000000000006

>  <NBS_non-phar>  (214) 
0.6467491149902344

>  <NBS>  (214) 
0.9067491149902345

>  <source_stage>  (214) 
scored

>  <source_iter>  (214) 
12

>  <source_parent_mol>  (214) 
0

>  <source_scenario>  (214) 
1 1 2 1 0 0 0 5 0 2 2 0

>  <source_rank_in_scored_call>  (214) 
0

>  <source_current_task>  (214) 
close_aromatic_ring

>  <scenario>  (214) 
1 1 2 1 0 0 0 5 0 2 2

>  <current_task>  (214) 
no_task

$$$$

     RDKit          3D

 15 17  0  0  0  0  0  0  0  0999 V2000
  -27.8560   -6.4380  -31.8800 C   0  0  0  0  0  0  0  0  0  0  0  0
  -27.3660   -5.5180  -32.7560 N   0  0  0  0  0  0  0  0  0  0  0  0
  -27.9690   -7.7870  -31.9050 N   0  0  0  0  0  0  0  0  0  0  0  0
  -27.3920   -4.1910  -32.4390 C   0  0  0  0  0  0  0  0  0  0  0  0
  -27.9100   -3.7550  -31.2370 C   0  0  0  0  0  0  0  0  0  0  0  0
  -28.3960   -4.6620  -30.3670 N   0  0  0  0  0  0  0  0  0  0  0  0
  -28.3730   -5.9650  -30.6750 C   0  0  0  0  0  0  0  0  0  0  0  0
  -28.5370   -8.2180  -30.7620 C   0  0  0  0  0  0  0  0  0  0  0  0
  -28.7880   -7.0880  -29.9990 C   0  0  0  0  0  0  0  0  0  0  0  0
  -28.0710   -2.3650  -30.6450 C   0  0  0  0  0  0  0  0  0  0  0  0
  -27.0560   -1.5760  -30.1650 C   0  0  0  0  0  0  0  0  0  0  0  0
  -29.3990   -2.0430  -30.3600 C   0  0  0  0  0  0  0  0  0  0  0  0
  -29.6650   -0.9210  -29.5900 C   0  0  0  0  0  0  0  0  0  0  0  0
  -28.6380   -0.1260  -29.1060 C   0  0  0  0  0  0  0  0  0  0  0  0
  -27.3200   -0.4600  -29.3990 C   0  0  0  0  0  0  0  0  0  0  0  0
  1  2  2  0
  1  3  1  0
  1  7  1  0
  2  4  1  0
  3  8  1  0
  4  5  2  0
  5 10  1  0
  5  6  1  0
  6  7  2  0
  7  9  1  0
  8  9  2  0
 10 12  1  0
 10 11  2  0
 11 15  1  0
 12 13  2  0
 13 14  1  0
 14 15  2  0
M  END
>  <name>  (215) 
Car Nac Nd0 Car Car Nac Car Car Car Car Car Car Car Car Car

>  <indices>  (215) 
[0, 1, 2]

>  <tasks>  (215) 
probe_placing close_aromatic_ring close_aromatic_ring close_aromatic_ring close_aromatic_ring ring_built build_to_Nd0 close_aromatic_ring no_task close_aromatic_ring close_aromatic_ring close_aromatic_ring close_aromatic_ring

>  <prot_clashes>  (215) 
8

>  <NBS phar>  (215) 
0.19999999999999998

>  <NBS_non-phar>  (215) 
0.6778704325358073

>  <NBS>  (215) 
0.8778704325358072

>  <source_stage>  (215) 
scored

>  <source_iter>  (215) 
12

>  <source_parent_mol>  (215) 
0

>  <source_scenario>  (215) 
1 1 2 1 0 0 0 5 0 2 2 0

>  <source_rank_in_scored_call>  (215) 
1

>  <source_current_task>  (215) 
close_aromatic_ring

>  <scenario>  (215) 
1 1 2 1 0 0 0 5 0 2 2

>  <current_task>  (215) 
no_task

$$$$

     RDKit          3D

 16 18  0  0  0  0  0  0  0  0999 V2000
  -28.2010   -7.7190  -32.0590 C   0  0  0  0  0  0  0  0  0  0  0  0
  -27.6900   -6.7660  -32.8880 N   0  0  0  0  0  0  0  0  0  0  0  0
  -28.3070   -9.0660  -32.1350 N   0  0  0  0  0  0  0  0  0  0  0  0
  -27.7300   -5.4530  -32.5260 C   0  0  0  0  0  0  0  0  0  0  0  0
  -28.2830   -5.0590  -31.3250 C   0  0  0  0  0  0  0  0  0  0  0  0
  -28.7900   -5.9980  -30.5020 N   0  0  0  0  0  0  0  0  0  0  0  0
  -28.7530   -7.2900  -30.8540 C   0  0  0  0  0  0  0  0  0  0  0  0
  -28.9070   -9.5380  -31.0250 C   0  0  0  0  0  0  0  0  0  0  0  0
  -29.1840   -8.4370  -30.2290 C   0  0  0  0  0  0  0  0  0  0  0  0
  -28.4680   -3.7540  -30.6880 C   0  0  0  0  0  0  0  0  0  0  0  0
  -27.9730   -2.6620  -31.4440 N   0  0  0  0  0  0  0  0  0  0  0  0
  -29.0350   -3.5710  -29.5150 C   0  0  0  0  0  0  0  0  0  0  0  0
  -29.1490   -2.2110  -28.9950 C   0  0  0  0  0  0  0  0  0  0  0  0
  -28.6990   -1.1820  -29.6760 C   0  0  0  0  0  0  0  0  0  0  0  0
  -28.0440   -1.2820  -31.0050 C   0  0  0  0  0  0  0  0  0  0  0  0
  -27.6139   -0.3118  -31.6546 O   0  0  0  0  0  0  0  0  0  0  0  0
  1  2  2  0
  1  3  1  0
  1  7  1  0
  2  4  1  0
  3  8  1  0
  4  5  2  0
  5 10  1  0
  5  6  1  0
  6  7  2  0
  7  9  1  0
  8  9  2  0
 10 11  1  0
 10 12  2  0
 11 15  1  0
 12 13  1  0
 13 14  2  0
 14 15  1  0
 15 16  2  0
M  END
>  <name>  (216) 
Car Nac Nd0 Car Car Nac Car Car Car Car Nd0 Car Car Car Car .=O

>  <indices>  (216) 
[0, 1, 2]

>  <tasks>  (216) 
probe_placing close_aromatic_ring close_aromatic_ring close_aromatic_ring close_aromatic_ring ring_built build_to_Nd0 close_aromatic_ring no_task close_aromatic_ring close_aromatic_ring close_aromatic_ring close_aromatic_ring close_aromatic_ring

>  <prot_clashes>  (216) 
2

>  <NBS phar>  (216) 
0.13999999999999999

>  <NBS_non-phar>  (216) 
0.6033939123153687

>  <NBS>  (216) 
0.7433939123153687

>  <source_stage>  (216) 
scored

>  <source_iter>  (216) 
13

>  <source_parent_mol>  (216) 
0

>  <source_scenario>  (216) 
1 1 2 1 0 0 0 5 2 0 0 0 0

>  <source_rank_in_scored_call>  (216) 
0

>  <source_current_task>  (216) 
fix_Car

>  <scenario>  (216) 
1 1 2 1 0 0 0 5 2 0 0 0

>  <current_task>  (216) 
no_task

$$$$

     RDKit          3D

 16 18  0  0  0  0  0  0  0  0999 V2000
  -28.3470   -7.8170  -32.2600 C   0  0  0  0  0  0  0  0  0  0  0  0
  -27.9230   -6.6870  -32.8920 N   0  0  0  0  0  0  0  0  0  0  0  0
  -28.4390   -9.1160  -32.6280 N   0  0  0  0  0  0  0  0  0  0  0  0
  -27.9520   -5.4890  -32.2430 C   0  0  0  0  0  0  0  0  0  0  0  0
  -28.4070   -5.3910  -30.9440 C   0  0  0  0  0  0  0  0  0  0  0  0
  -28.8280   -6.5060  -30.3150 N   0  0  0  0  0  0  0  0  0  0  0  0
  -28.8010   -7.6850  -30.9500 C   0  0  0  0  0  0  0  0  0  0  0  0
  -28.9350   -9.8430  -31.6080 C   0  0  0  0  0  0  0  0  0  0  0  0
  -29.1600   -8.9560  -30.5660 C   0  0  0  0  0  0  0  0  0  0  0  0
  -28.5560   -4.2670  -30.0180 C   0  0  0  0  0  0  0  0  0  0  0  0
  -28.1440   -3.0180  -30.5470 N   0  0  0  0  0  0  0  0  0  0  0  0
  -29.0240   -4.3690  -28.7930 C   0  0  0  0  0  0  0  0  0  0  0  0
  -29.1140   -3.1630  -27.9730 C   0  0  0  0  0  0  0  0  0  0  0  0
  -28.7390   -1.9940  -28.4400 C   0  0  0  0  0  0  0  0  0  0  0  0
  -28.1980   -1.7740  -29.8050 C   0  0  0  0  0  0  0  0  0  0  0  0
  -27.8390   -0.6690  -30.2530 O   0  0  0  0  0  0  0  0  0  0  0  0
  1  2  2  0
  1  3  1  0
  1  7  1  0
  2  4  1  0
  3  8  1  0
  4  5  2  0
  5  6  1  0
  5 10  1  0
  6  7  2  0
  7  9  1  0
  8  9  2  0
 10 11  1  0
 10 12  2  0
 11 15  1  0
 12 13  1  0
 13 14  2  0
 14 15  1  0
 15 16  2  0
M  END
>  <name>  (217) 
Car Nac Nd0 Car Car Nac Car Car Car Car Nd0 Car Car Car Car .=O

>  <indices>  (217) 
[0, 1, 2]

>  <tasks>  (217) 
probe_placing close_aromatic_ring close_aromatic_ring close_aromatic_ring close_aromatic_ring ring_built build_to_Nd0 close_aromatic_ring no_task close_aromatic_ring close_aromatic_ring close_aromatic_ring close_aromatic_ring close_aromatic_ring

>  <prot_clashes>  (217) 
3

>  <NBS phar>  (217) 
0.19999999999999998

>  <NBS_non-phar>  (217) 
0.4733074903488159

>  <NBS>  (217) 
0.6733074903488159

>  <source_stage>  (217) 
scored

>  <source_iter>  (217) 
13

>  <source_parent_mol>  (217) 
0

>  <source_scenario>  (217) 
1 1 2 1 0 0 0 5 2 0 0 0 0

>  <source_rank_in_scored_call>  (217) 
1

>  <source_current_task>  (217) 
fix_Car

>  <scenario>  (217) 
1 1 2 1 0 0 0 5 2 0 0 0

>  <current_task>  (217) 
no_task

$$$$

     RDKit          3D

 15 17  0  0  0  0  0  0  0  0999 V2000
  -27.9720   -6.8210  -32.0670 C   0  0  0  0  0  0  0  0  0  0  0  0
  -27.5340   -5.6060  -32.4980 N   0  0  0  0  0  0  0  0  0  0  0  0
  -27.8930   -8.0760  -32.5670 N   0  0  0  0  0  0  0  0  0  0  0  0
  -27.7740   -4.4890  -31.7530 C   0  0  0  0  0  0  0  0  0  0  0  0
  -28.4590   -4.5620  -30.5570 C   0  0  0  0  0  0  0  0  0  0  0  0
  -28.8950   -5.7630  -30.1270 N   0  0  0  0  0  0  0  0  0  0  0  0
  -28.6610   -6.8610  -30.8560 C   0  0  0  0  0  0  0  0  0  0  0  0
  -28.5020   -8.9390  -31.7310 C   0  0  0  0  0  0  0  0  0  0  0  0
  -28.9790   -8.1860  -30.6700 C   0  0  0  0  0  0  0  0  0  0  0  0
  -28.7390   -3.3000  -29.7960 C   0  0  0  0  0  0  0  0  0  0  0  0
  -28.9050   -3.2700  -28.4210 C   0  0  0  0  0  0  0  0  0  0  0  0
  -29.1270   -2.1040  -27.7170 C   0  0  0  0  0  0  0  0  0  0  0  0
  -29.1840   -0.9210  -28.4230 C   0  0  0  0  0  0  0  0  0  0  0  0
  -28.8000   -2.1220  -30.4720 C   0  0  0  0  0  0  0  0  0  0  0  0
  -29.0170   -0.9670  -29.7900 C   0  0  0  0  0  0  0  0  0  0  0  0
  1  3  1  0
  1  2  2  0
  1  7  1  0
  2  4  1  0
  3  8  1  0
  4  5  2  0
  5  6  1  0
  5 10  1  0
  6  7  2  0
  7  9  1  0
  8  9  2  0
 10 14  1  0
 10 11  2  0
 11 12  1  0
 12 13  2  0
 13 15  1  0
 14 15  2  0
M  END
>  <name>  (218) 
Car Nac Nd0 Car Car Nac Car Car Car Car Car Car Car Car Car

>  <indices>  (218) 
[0, 1, 2]

>  <tasks>  (218) 
probe_placing close_aromatic_ring close_aromatic_ring close_aromatic_ring close_aromatic_ring ring_built build_to_Nd0 close_aromatic_ring no_task close_aromatic_ring close_aromatic_ring close_aromatic_ring close_aromatic_ring

>  <prot_clashes>  (218) 
4

>  <NBS phar>  (218) 
0.12

>  <NBS_non-phar>  (218) 
0.5732716242472331

>  <NBS>  (218) 
0.6932716242472331

>  <source_stage>  (218) 
scored

>  <source_iter>  (218) 
12

>  <source_parent_mol>  (218) 
1

>  <source_scenario>  (218) 
1 1 2 1 0 0 0 6 1 1 1 1

>  <source_rank_in_scored_call>  (218) 
1

>  <source_current_task>  (218) 
close_aromatic_ring

>  <scenario>  (218) 
1 1 2 1 0 0 0 6 1 1 1

>  <current_task>  (218) 
no_task

$$$$

     RDKit          3D

 15 17  0  0  0  0  0  0  0  0999 V2000
  -27.9290   -7.0330  -32.0630 C   0  0  0  0  0  0  0  0  0  0  0  0
  -27.5590   -5.8140  -32.5450 N   0  0  0  0  0  0  0  0  0  0  0  0
  -27.8160   -8.2980  -32.5290 N   0  0  0  0  0  0  0  0  0  0  0  0
  -27.8170   -4.6860  -31.8230 C   0  0  0  0  0  0  0  0  0  0  0  0
  -28.4540   -4.7510  -30.6000 C   0  0  0  0  0  0  0  0  0  0  0  0
  -28.8220   -5.9550  -30.1190 N   0  0  0  0  0  0  0  0  0  0  0  0
  -28.5700   -7.0640  -30.8250 C   0  0  0  0  0  0  0  0  0  0  0  0
  -28.3560   -9.1600  -31.6450 C   0  0  0  0  0  0  0  0  0  0  0  0
  -28.8240   -8.3950  -30.5880 C   0  0  0  0  0  0  0  0  0  0  0  0
  -28.5590   -3.4643  -29.7962 C   0  0  0  0  0  0  0  0  0  0  0  0
  -28.8674   -3.4582  -28.4454 C   0  0  0  0  0  0  0  0  0  0  0  0
  -29.2048   -2.2608  -27.8493 C   0  0  0  0  0  0  0  0  0  0  0  0
  -29.2533   -1.0633  -28.5237 C   0  0  0  0  0  0  0  0  0  0  0  0
  -28.9436   -1.0681  -29.8813 C   0  0  0  0  0  0  0  0  0  0  0  0
  -28.6060   -2.2668  -30.4773 C   0  0  0  0  0  0  0  0  0  0  0  0
  1  2  2  0
  1  3  1  0
  1  7  1  0
  2  4  1  0
  3  8  1  0
  4  5  2  0
  5  6  1  0
  5 10  1  0
  6  7  2  0
  7  9  1  0
  8  9  2  0
 10 11  2  0
 11 12  1  0
 12 13  2  0
 13 14  1  0
 10 15  1  0
 14 15  2  0
M  END
>  <name>  (219) 
Car Nac Nd0 Car Car Nac Car Car Car Car Car Car Car Car Car

>  <indices>  (219) 
[0, 1, 2]

>  <tasks>  (219) 
probe_placing close_aromatic_ring close_aromatic_ring close_aromatic_ring close_aromatic_ring ring_built build_to_Nd0 close_aromatic_ring no_task close_aromatic_ring close_aromatic_ring close_aromatic_ring close_aromatic_ring

>  <prot_clashes>  (219) 
6

>  <NBS phar>  (219) 
0.15999999999999998

>  <NBS_non-phar>  (219) 
0.6321913401285807

>  <NBS>  (219) 
0.7921913401285807

>  <source_stage>  (219) 
scored

>  <source_iter>  (219) 
12

>  <source_parent_mol>  (219) 
2

>  <source_scenario>  (219) 
1 1 2 1 0 0 0 6 1 1 1 2

>  <source_rank_in_scored_call>  (219) 
0

>  <source_current_task>  (219) 
close_aromatic_ring

>  <scenario>  (219) 
1 1 2 1 0 0 0 6 1 1 1

>  <current_task>  (219) 
no_task

$$$$

     RDKit          3D

 15 17  0  0  0  0  0  0  0  0999 V2000
  -28.0330   -6.9930  -32.0260 C   0  0  0  0  0  0  0  0  0  0  0  0
  -27.5810   -5.7990  -32.5030 N   0  0  0  0  0  0  0  0  0  0  0  0
  -27.9780   -8.2650  -32.4830 N   0  0  0  0  0  0  0  0  0  0  0  0
  -27.7960   -4.6540  -31.7940 C   0  0  0  0  0  0  0  0  0  0  0  0
  -28.4710   -4.6750  -30.5900 C   0  0  0  0  0  0  0  0  0  0  0  0
  -28.9200   -5.8540  -30.1140 N   0  0  0  0  0  0  0  0  0  0  0  0
  -28.7110   -6.9800  -30.8070 C   0  0  0  0  0  0  0  0  0  0  0  0
  -28.5920   -9.0890  -31.6110 C   0  0  0  0  0  0  0  0  0  0  0  0
  -29.0460   -8.2930  -30.5720 C   0  0  0  0  0  0  0  0  0  0  0  0
  -28.5260   -3.3790  -29.7950 C   0  0  0  0  0  0  0  0  0  0  0  0
  -28.8730   -3.3480  -28.4540 C   0  0  0  0  0  0  0  0  0  0  0  0
  -29.1600   -2.1300  -27.8740 C   0  0  0  0  0  0  0  0  0  0  0  0
  -29.1200   -0.9350  -28.5550 C   0  0  0  0  0  0  0  0  0  0  0  0
  -28.7730   -0.9660  -29.9030 C   0  0  0  0  0  0  0  0  0  0  0  0
  -28.4860   -2.1860  -30.4830 C   0  0  0  0  0  0  0  0  0  0  0  0
  1  2  2  0
  1  3  1  0
  1  7  1  0
  2  4  1  0
  3  8  1  0
  4  5  2  0
  5  6  1  0
  5 10  1  0
  6  7  2  0
  7  9  1  0
  8  9  2  0
 10 15  1  0
 10 11  2  0
 11 12  1  0
 12 13  2  0
 13 14  1  0
 14 15  2  0
M  END
>  <name>  (220) 
Car Nac Nd0 Car Car Nac Car Car Car Car Car Car Car Car Car

>  <indices>  (220) 
[0, 1, 2]

>  <tasks>  (220) 
probe_placing close_aromatic_ring close_aromatic_ring close_aromatic_ring close_aromatic_ring ring_built build_to_Nd0 close_aromatic_ring no_task close_aromatic_ring close_aromatic_ring close_aromatic_ring close_aromatic_ring

>  <prot_clashes>  (220) 
3

>  <NBS phar>  (220) 
0.15999999999999998

>  <NBS_non-phar>  (220) 
0.5967665990193685

>  <NBS>  (220) 
0.7567665990193684

>  <source_stage>  (220) 
scored

>  <source_iter>  (220) 
12

>  <source_parent_mol>  (220) 
2

>  <source_scenario>  (220) 
1 1 2 1 0 0 0 6 1 1 1 2

>  <source_rank_in_scored_call>  (220) 
1

>  <source_current_task>  (220) 
close_aromatic_ring

>  <scenario>  (220) 
1 1 2 1 0 0 0 6 1 1 1

>  <current_task>  (220) 
no_task

$$$$

     RDKit          3D

 15 17  0  0  0  0  0  0  0  0999 V2000
  -27.9290   -7.0330  -32.0630 C   0  0  0  0  0  0  0  0  0  0  0  0
  -27.5590   -5.8140  -32.5450 N   0  0  0  0  0  0  0  0  0  0  0  0
  -27.8160   -8.2980  -32.5290 N   0  0  0  0  0  0  0  0  0  0  0  0
  -27.8170   -4.6860  -31.8230 C   0  0  0  0  0  0  0  0  0  0  0  0
  -28.4540   -4.7510  -30.6000 C   0  0  0  0  0  0  0  0  0  0  0  0
  -28.8220   -5.9550  -30.1190 N   0  0  0  0  0  0  0  0  0  0  0  0
  -28.5700   -7.0640  -30.8250 C   0  0  0  0  0  0  0  0  0  0  0  0
  -28.3560   -9.1600  -31.6450 C   0  0  0  0  0  0  0  0  0  0  0  0
  -28.8240   -8.3950  -30.5880 C   0  0  0  0  0  0  0  0  0  0  0  0
  -28.7591   -3.4827  -29.8419 C   0  0  0  0  0  0  0  0  0  0  0  0
  -28.8718   -3.4394  -28.4661 C   0  0  0  0  0  0  0  0  0  0  0  0
  -29.1160   -2.2528  -27.8092 C   0  0  0  0  0  0  0  0  0  0  0  0
  -29.2448   -1.1068  -28.5677 C   0  0  0  0  0  0  0  0  0  0  0  0
  -29.1408   -1.0962  -29.9448 C   0  0  0  0  0  0  0  0  0  0  0  0
  -28.8941   -2.3165  -30.5634 C   0  0  0  0  0  0  0  0  0  0  0  0
  1  2  2  0
  1  3  1  0
  1  7  1  0
  2  4  1  0
  3  8  1  0
  4  5  2  0
  5  6  1  0
  5 10  1  0
  6  7  2  0
  7  9  1  0
  8  9  2  0
 10 11  2  0
 11 12  1  0
 12 13  2  0
 13 14  1  0
 10 15  1  0
 14 15  2  0
M  END
>  <name>  (221) 
Car Nac Nd0 Car Car Nac Car Car Car Car Car Car Car Car Car

>  <indices>  (221) 
[0, 1, 2]

>  <tasks>  (221) 
probe_placing close_aromatic_ring close_aromatic_ring close_aromatic_ring close_aromatic_ring ring_built build_to_Nd0 close_aromatic_ring no_task close_aromatic_ring close_aromatic_ring close_aromatic_ring close_aromatic_ring

>  <prot_clashes>  (221) 
7

>  <NBS phar>  (221) 
0.13999999999999999

>  <NBS_non-phar>  (221) 
0.6004194259643555

>  <NBS>  (221) 
0.7404194259643555

>  <source_stage>  (221) 
scored

>  <source_iter>  (221) 
12

>  <source_parent_mol>  (221) 
2

>  <source_scenario>  (221) 
1 1 2 1 0 0 0 6 1 1 1 2

>  <source_rank_in_scored_call>  (221) 
2

>  <source_current_task>  (221) 
close_aromatic_ring

>  <scenario>  (221) 
1 1 2 1 0 0 0 6 1 1 1

>  <current_task>  (221) 
no_task

$$$$

     RDKit          3D

 15 17  0  0  0  0  0  0  0  0999 V2000
  -28.0970   -6.9600  -32.0640 C   0  0  0  0  0  0  0  0  0  0  0  0
  -27.6260   -5.7650  -32.5170 N   0  0  0  0  0  0  0  0  0  0  0  0
  -28.0650   -8.2240  -32.5470 N   0  0  0  0  0  0  0  0  0  0  0  0
  -27.8180   -4.6320  -31.7840 C   0  0  0  0  0  0  0  0  0  0  0  0
  -28.4890   -4.6670  -30.5780 C   0  0  0  0  0  0  0  0  0  0  0  0
  -28.9570   -5.8470  -30.1250 N   0  0  0  0  0  0  0  0  0  0  0  0
  -28.7690   -6.9610  -30.8420 C   0  0  0  0  0  0  0  0  0  0  0  0
  -28.6890   -9.0560  -31.6900 C   0  0  0  0  0  0  0  0  0  0  0  0
  -29.1270   -8.2730  -30.6330 C   0  0  0  0  0  0  0  0  0  0  0  0
  -28.7190   -3.3900  -29.8070 C   0  0  0  0  0  0  0  0  0  0  0  0
  -28.8630   -3.3580  -28.4340 C   0  0  0  0  0  0  0  0  0  0  0  0
  -29.0360   -2.1660  -27.7640 C   0  0  0  0  0  0  0  0  0  0  0  0
  -29.0610   -1.0030  -28.5070 C   0  0  0  0  0  0  0  0  0  0  0  0
  -28.9220   -0.9800  -29.8810 C   0  0  0  0  0  0  0  0  0  0  0  0
  -28.7500   -2.2080  -30.5120 C   0  0  0  0  0  0  0  0  0  0  0  0
  1  3  1  0
  1  2  2  0
  1  7  1  0
  2  4  1  0
  3  8  1  0
  4  5  2  0
  5  6  1  0
  5 10  1  0
  6  7  2  0
  7  9  1  0
  8  9  2  0
 10 15  1  0
 10 11  2  0
 11 12  1  0
 12 13  2  0
 13 14  1  0
 14 15  2  0
M  END
>  <name>  (222) 
Car Nac Nd0 Car Car Nac Car Car Car Car Car Car Car Car Car

>  <indices>  (222) 
[0, 1, 2]

>  <tasks>  (222) 
probe_placing close_aromatic_ring close_aromatic_ring close_aromatic_ring close_aromatic_ring ring_built build_to_Nd0 close_aromatic_ring no_task close_aromatic_ring close_aromatic_ring close_aromatic_ring close_aromatic_ring

>  <prot_clashes>  (222) 
3

>  <NBS phar>  (222) 
0.12

>  <NBS_non-phar>  (222) 
0.5893298467000325

>  <NBS>  (222) 
0.7093298467000325

>  <source_stage>  (222) 
scored

>  <source_iter>  (222) 
12

>  <source_parent_mol>  (222) 
2

>  <source_scenario>  (222) 
1 1 2 1 0 0 0 6 1 1 1 2

>  <source_rank_in_scored_call>  (222) 
3

>  <source_current_task>  (222) 
close_aromatic_ring

>  <scenario>  (222) 
1 1 2 1 0 0 0 6 1 1 1

>  <current_task>  (222) 
no_task

$$$$

     RDKit          3D

 15 17  0  0  0  0  0  0  0  0999 V2000
  -27.9930   -7.0940  -32.1250 C   0  0  0  0  0  0  0  0  0  0  0  0
  -27.4210   -5.9270  -32.5270 N   0  0  0  0  0  0  0  0  0  0  0  0
  -28.0160   -8.3490  -32.6310 N   0  0  0  0  0  0  0  0  0  0  0  0
  -27.5810   -4.7950  -31.7840 C   0  0  0  0  0  0  0  0  0  0  0  0
  -28.3200   -4.8050  -30.6180 C   0  0  0  0  0  0  0  0  0  0  0  0
  -28.8890   -5.9590  -30.2150 N   0  0  0  0  0  0  0  0  0  0  0  0
  -28.7330   -7.0720  -30.9440 C   0  0  0  0  0  0  0  0  0  0  0  0
  -28.7410   -9.1520  -31.8280 C   0  0  0  0  0  0  0  0  0  0  0  0
  -29.1860   -8.3600  -30.7810 C   0  0  0  0  0  0  0  0  0  0  0  0
  -28.4774   -3.5138  -29.8146 C   0  0  0  0  0  0  0  0  0  0  0  0
  -28.4992   -2.3243  -30.5169 C   0  0  0  0  0  0  0  0  0  0  0  0
  -28.7499   -1.1280  -29.8673 C   0  0  0  0  0  0  0  0  0  0  0  0
  -28.7037   -3.5432  -28.4542 C   0  0  0  0  0  0  0  0  0  0  0  0
  -28.9531   -2.3557  -27.8064 C   0  0  0  0  0  0  0  0  0  0  0  0
  -28.9775   -1.1468  -28.5063 C   0  0  0  0  0  0  0  0  0  0  0  0
  1  3  1  0
  1  2  2  0
  1  7  1  0
  2  4  1  0
  3  8  1  0
  4  5  2  0
  5  6  1  0
  5 10  1  0
  6  7  2  0
  7  9  1  0
  8  9  2  0
 10 11  2  0
 10 13  1  0
 13 14  2  0
 11 12  1  0
 12 15  2  0
 14 15  1  0
M  END
>  <name>  (223) 
Car Nac Nd0 Car Car Nac Car Car Car Car Car Car Car Car Car

>  <indices>  (223) 
[0, 1, 2]

>  <tasks>  (223) 
probe_placing close_aromatic_ring close_aromatic_ring close_aromatic_ring close_aromatic_ring ring_built build_to_Nd0 close_aromatic_ring no_task close_aromatic_ring close_aromatic_ring close_aromatic_ring close_aromatic_ring

>  <prot_clashes>  (223) 
2

>  <NBS phar>  (223) 
0.18

>  <NBS_non-phar>  (223) 
0.5840782801310221

>  <NBS>  (223) 
0.7640782801310222

>  <source_stage>  (223) 
scored

>  <source_iter>  (223) 
12

>  <source_parent_mol>  (223) 
0

>  <source_scenario>  (223) 
1 1 2 1 0 0 0 6 1 1 3 0

>  <source_rank_in_scored_call>  (223) 
0

>  <source_current_task>  (223) 
close_aromatic_ring

>  <scenario>  (223) 
1 1 2 1 0 0 0 6 1 1 3

>  <current_task>  (223) 
no_task

$$$$

     RDKit          3D

 15 17  0  0  0  0  0  0  0  0999 V2000
  -28.0810   -7.0200  -32.0700 C   0  0  0  0  0  0  0  0  0  0  0  0
  -27.5790   -5.8360  -32.5140 N   0  0  0  0  0  0  0  0  0  0  0  0
  -28.0660   -8.2840  -32.5530 N   0  0  0  0  0  0  0  0  0  0  0  0
  -27.7610   -4.6990  -31.7840 C   0  0  0  0  0  0  0  0  0  0  0  0
  -28.4540   -4.7200  -30.5900 C   0  0  0  0  0  0  0  0  0  0  0  0
  -28.9540   -5.8910  -30.1450 N   0  0  0  0  0  0  0  0  0  0  0  0
  -28.7750   -7.0090  -30.8610 C   0  0  0  0  0  0  0  0  0  0  0  0
  -28.7220   -9.1040  -31.7080 C   0  0  0  0  0  0  0  0  0  0  0  0
  -29.1620   -8.3130  -30.6580 C   0  0  0  0  0  0  0  0  0  0  0  0
  -28.6390   -3.4230  -29.8040 C   0  0  0  0  0  0  0  0  0  0  0  0
  -28.7420   -2.2480  -30.5240 C   0  0  0  0  0  0  0  0  0  0  0  0
  -29.0220   -1.0530  -29.8860 C   0  0  0  0  0  0  0  0  0  0  0  0
  -28.8110   -3.4360  -28.4350 C   0  0  0  0  0  0  0  0  0  0  0  0
  -29.0890   -2.2500  -27.7980 C   0  0  0  0  0  0  0  0  0  0  0  0
  -29.1950   -1.0570  -28.5170 C   0  0  0  0  0  0  0  0  0  0  0  0
  1  3  1  0
  1  2  2  0
  1  7  1  0
  2  4  1  0
  3  8  1  0
  4  5  2  0
  5  6  1  0
  5 10  1  0
  6  7  2  0
  7  9  1  0
  8  9  2  0
 10 11  2  0
 10 13  1  0
 11 12  1  0
 12 15  2  0
 13 14  2  0
 14 15  1  0
M  END
>  <name>  (224) 
Car Nac Nd0 Car Car Nac Car Car Car Car Car Car Car Car Car

>  <indices>  (224) 
[0, 1, 2]

>  <tasks>  (224) 
probe_placing close_aromatic_ring close_aromatic_ring close_aromatic_ring close_aromatic_ring ring_built build_to_Nd0 close_aromatic_ring no_task close_aromatic_ring close_aromatic_ring close_aromatic_ring close_aromatic_ring

>  <prot_clashes>  (224) 
3

>  <NBS phar>  (224) 
0.13999999999999999

>  <NBS_non-phar>  (224) 
0.5755488077799479

>  <NBS>  (224) 
0.7155488077799479

>  <source_stage>  (224) 
scored

>  <source_iter>  (224) 
12

>  <source_parent_mol>  (224) 
0

>  <source_scenario>  (224) 
1 1 2 1 0 0 0 6 1 1 3 0

>  <source_rank_in_scored_call>  (224) 
2

>  <source_current_task>  (224) 
close_aromatic_ring

>  <scenario>  (224) 
1 1 2 1 0 0 0 6 1 1 3

>  <current_task>  (224) 
no_task

$$$$

     RDKit          3D

 14 16  0  0  0  0  0  0  0  0999 V2000
  -27.8157   -7.5772  -31.1843 C   0  0  0  0  0  0  0  0  0  0  0  0
  -27.6232   -6.6304  -32.1432 N   0  0  0  0  0  0  0  0  0  0  0  0
  -27.6886   -8.9242  -31.1585 N   0  0  0  0  0  0  0  0  0  0  0  0
  -27.8404   -5.3143  -31.8580 C   0  0  0  0  0  0  0  0  0  0  0  0
  -28.2563   -4.9136  -30.6039 C   0  0  0  0  0  0  0  0  0  0  0  0
  -28.4482   -5.8480  -29.6510 N   0  0  0  0  0  0  0  0  0  0  0  0
  -28.2358   -7.1413  -29.9278 C   0  0  0  0  0  0  0  0  0  0  0  0
  -28.0083   -9.3903  -29.9358 C   0  0  0  0  0  0  0  0  0  0  0  0
  -28.3479   -8.2835  -29.1720 C   0  0  0  0  0  0  0  0  0  0  0  0
  -28.4963   -3.4638  -30.2949 C   0  0  0  0  0  0  0  0  0  0  0  0
  -28.3587   -2.9789  -28.9886 C   0  0  0  0  0  0  0  0  0  0  0  0
  -28.9514   -2.4396  -31.1011 C   0  0  0  0  0  0  0  0  0  0  0  0
  -29.0843   -1.3458  -30.2744 C   0  0  0  0  0  0  0  0  0  0  0  0
  -28.7294   -1.6825  -29.0275 N   0  0  0  0  0  0  0  0  0  0  0  0
  1  2  2  0
  1  3  1  0
  2  4  1  0
  4  5  2  0
  5  6  1  0
  6  7  2  0
  1  7  1  0
  3  8  1  0
  8  9  2  0
  7  9  1  0
  5 10  1  0
 10 11  2  0
 10 12  1  0
 12 13  2  0
 11 14  1  0
 13 14  1  0
M  END
>  <name>  (225) 
Car Nac Nd0 Car Car Nac Car Car Car Car Car Car Car Nd0

>  <indices>  (225) 
[0, 1, 2]

>  <tasks>  (225) 
probe_placing close_aromatic_ring close_aromatic_ring close_aromatic_ring close_aromatic_ring ring_built build_to_Nd0 close_aromatic_ring no_task close_aromatic_ring close_aromatic_ring close_aromatic_ring

>  <prot_clashes>  (225) 
6

>  <NBS phar>  (225) 
0.26000000000000006

>  <NBS_non-phar>  (225) 
0.6489665167672294

>  <NBS>  (225) 
0.9089665167672294

>  <source_stage>  (225) 
scored

>  <source_iter>  (225) 
11

>  <source_parent_mol>  (225) 
0

>  <source_scenario>  (225) 
1 1 2 1 0 0 0 6 1 3 0

>  <source_rank_in_scored_call>  (225) 
0

>  <source_current_task>  (225) 
close_aromatic_ring

>  <scenario>  (225) 
1 1 2 1 0 0 0 6 1 3

>  <current_task>  (225) 
no_task

$$$$

     RDKit          3D

 14 16  0  0  0  0  0  0  0  0999 V2000
  -27.9940   -7.2460  -31.9460 C   0  0  0  0  0  0  0  0  0  0  0  0
  -27.4010   -6.1750  -32.5420 N   0  0  0  0  0  0  0  0  0  0  0  0
  -28.0450   -8.5680  -32.2330 N   0  0  0  0  0  0  0  0  0  0  0  0
  -27.5350   -4.9310  -32.0000 C   0  0  0  0  0  0  0  0  0  0  0  0
  -28.2680   -4.7280  -30.8480 C   0  0  0  0  0  0  0  0  0  0  0  0
  -28.8570   -5.7860  -30.2550 N   0  0  0  0  0  0  0  0  0  0  0  0
  -28.7270   -7.0090  -30.7840 C   0  0  0  0  0  0  0  0  0  0  0  0
  -28.7810   -9.2080  -31.3040 C   0  0  0  0  0  0  0  0  0  0  0  0
  -29.2050   -8.2410  -30.4060 C   0  0  0  0  0  0  0  0  0  0  0  0
  -28.4150   -3.3560  -30.2570 C   0  0  0  0  0  0  0  0  0  0  0  0
  -28.6330   -3.1880  -28.8840 C   0  0  0  0  0  0  0  0  0  0  0  0
  -28.4710   -2.1190  -30.8670 C   0  0  0  0  0  0  0  0  0  0  0  0
  -28.7210   -1.2160  -29.8560 C   0  0  0  0  0  0  0  0  0  0  0  0
  -28.8140   -1.8660  -28.6890 N   0  0  0  0  0  0  0  0  0  0  0  0
  1  2  2  0
  1  3  1  0
  1  7  1  0
  2  4  1  0
  3  8  1  0
  4  5  2  0
  5 10  1  0
  5  6  1  0
  6  7  2  0
  7  9  1  0
  8  9  2  0
 10 12  1  0
 10 11  2  0
 11 14  1  0
 12 13  2  0
 13 14  1  0
M  END
>  <name>  (226) 
Car Nac Nd0 Car Car Nac Car Car Car Car Car Car Car Nd0

>  <indices>  (226) 
[0, 1, 2]

>  <tasks>  (226) 
probe_placing close_aromatic_ring close_aromatic_ring close_aromatic_ring close_aromatic_ring ring_built build_to_Nd0 close_aromatic_ring no_task close_aromatic_ring close_aromatic_ring close_aromatic_ring

>  <prot_clashes>  (226) 
3

>  <NBS phar>  (226) 
0.1

>  <NBS_non-phar>  (226) 
0.6325831413269043

>  <NBS>  (226) 
0.7325831413269043

>  <source_stage>  (226) 
scored

>  <source_iter>  (226) 
11

>  <source_parent_mol>  (226) 
0

>  <source_scenario>  (226) 
1 1 2 1 0 0 0 6 1 3 0

>  <source_rank_in_scored_call>  (226) 
1

>  <source_current_task>  (226) 
close_aromatic_ring

>  <scenario>  (226) 
1 1 2 1 0 0 0 6 1 3

>  <current_task>  (226) 
no_task

$$$$

     RDKit          3D

 14 16  0  0  0  0  0  0  0  0999 V2000
  -27.8157   -7.5772  -31.1843 C   0  0  0  0  0  0  0  0  0  0  0  0
  -27.6232   -6.6304  -32.1432 N   0  0  0  0  0  0  0  0  0  0  0  0
  -27.6886   -8.9242  -31.1585 N   0  0  0  0  0  0  0  0  0  0  0  0
  -27.8404   -5.3143  -31.8580 C   0  0  0  0  0  0  0  0  0  0  0  0
  -28.2563   -4.9136  -30.6039 C   0  0  0  0  0  0  0  0  0  0  0  0
  -28.4482   -5.8480  -29.6510 N   0  0  0  0  0  0  0  0  0  0  0  0
  -28.2358   -7.1413  -29.9278 C   0  0  0  0  0  0  0  0  0  0  0  0
  -28.0083   -9.3903  -29.9358 C   0  0  0  0  0  0  0  0  0  0  0  0
  -28.3479   -8.2835  -29.1720 C   0  0  0  0  0  0  0  0  0  0  0  0
  -28.4878   -3.4935  -30.3223 C   0  0  0  0  0  0  0  0  0  0  0  0
  -28.3756   -2.9907  -29.0417 C   0  0  0  0  0  0  0  0  0  0  0  0
  -28.9488   -2.4926  -31.1521 C   0  0  0  0  0  0  0  0  0  0  0  0
  -28.7629   -1.6858  -29.0683 N   0  0  0  0  0  0  0  0  0  0  0  0
  -29.1089   -1.3840  -30.3410 C   0  0  0  0  0  0  0  0  0  0  0  0
  1  2  2  0
  1  3  1  0
  2  4  1  0
  4  5  2  0
  5  6  1  0
  6  7  2  0
  1  7  1  0
  3  8  1  0
  8  9  2  0
  7  9  1  0
  5 10  1  0
 10 11  2  0
 10 12  1  0
 11 13  1  0
 13 14  1  0
 12 14  2  0
M  END
>  <name>  (227) 
Car Nac Nd0 Car Car Nac Car Car Car Car Car Car Nd0 Car

>  <indices>  (227) 
[0, 1, 2]

>  <tasks>  (227) 
probe_placing close_aromatic_ring close_aromatic_ring close_aromatic_ring close_aromatic_ring ring_built build_to_Nd0 close_aromatic_ring no_task close_aromatic_ring close_aromatic_ring close_aromatic_ring

>  <prot_clashes>  (227) 
6

>  <NBS phar>  (227) 
0.2800000000000001

>  <NBS_non-phar>  (227) 
0.6320548738752093

>  <NBS>  (227) 
0.9120548738752094

>  <source_stage>  (227) 
scored

>  <source_iter>  (227) 
11

>  <source_parent_mol>  (227) 
1

>  <source_scenario>  (227) 
1 1 2 1 0 0 0 6 1 3 1

>  <source_rank_in_scored_call>  (227) 
0

>  <source_current_task>  (227) 
close_aromatic_ring

>  <scenario>  (227) 
1 1 2 1 0 0 0 6 1 3

>  <current_task>  (227) 
no_task

$$$$

     RDKit          3D

 14 16  0  0  0  0  0  0  0  0999 V2000
  -27.9690   -7.2740  -31.9290 C   0  0  0  0  0  0  0  0  0  0  0  0
  -27.3300   -6.2270  -32.5200 N   0  0  0  0  0  0  0  0  0  0  0  0
  -28.0590   -8.5950  -32.2090 N   0  0  0  0  0  0  0  0  0  0  0  0
  -27.4310   -4.9750  -31.9880 C   0  0  0  0  0  0  0  0  0  0  0  0
  -28.1750   -4.7410  -30.8490 C   0  0  0  0  0  0  0  0  0  0  0  0
  -28.8090   -5.7750  -30.2600 N   0  0  0  0  0  0  0  0  0  0  0  0
  -28.7120   -7.0050  -30.7810 C   0  0  0  0  0  0  0  0  0  0  0  0
  -28.8320   -9.2040  -31.2890 C   0  0  0  0  0  0  0  0  0  0  0  0
  -29.2380   -8.2180  -30.4030 C   0  0  0  0  0  0  0  0  0  0  0  0
  -28.2730   -3.3870  -30.2970 C   0  0  0  0  0  0  0  0  0  0  0  0
  -28.5190   -3.1760  -28.9560 C   0  0  0  0  0  0  0  0  0  0  0  0
  -28.2780   -2.1680  -30.9450 C   0  0  0  0  0  0  0  0  0  0  0  0
  -28.6770   -1.8380  -28.7630 N   0  0  0  0  0  0  0  0  0  0  0  0
  -28.5320   -1.2280  -29.9620 C   0  0  0  0  0  0  0  0  0  0  0  0
  1  2  2  0
  1  3  1  0
  1  7  1  0
  2  4  1  0
  3  8  1  0
  4  5  2  0
  5 10  1  0
  5  6  1  0
  6  7  2  0
  7  9  1  0
  8  9  2  0
 10 12  1  0
 10 11  2  0
 11 13  1  0
 12 14  2  0
 13 14  1  0
M  END
>  <name>  (228) 
Car Nac Nd0 Car Car Nac Car Car Car Car Car Car Nd0 Car

>  <indices>  (228) 
[0, 1, 2]

>  <tasks>  (228) 
probe_placing close_aromatic_ring close_aromatic_ring close_aromatic_ring close_aromatic_ring ring_built build_to_Nd0 close_aromatic_ring no_task close_aromatic_ring close_aromatic_ring close_aromatic_ring

>  <prot_clashes>  (228) 
2

>  <NBS phar>  (228) 
0.12

>  <NBS_non-phar>  (228) 
0.7009647914341518

>  <NBS>  (228) 
0.8209647914341518

>  <source_stage>  (228) 
scored

>  <source_iter>  (228) 
11

>  <source_parent_mol>  (228) 
1

>  <source_scenario>  (228) 
1 1 2 1 0 0 0 6 1 3 1

>  <source_rank_in_scored_call>  (228) 
2

>  <source_current_task>  (228) 
close_aromatic_ring

>  <scenario>  (228) 
1 1 2 1 0 0 0 6 1 3

>  <current_task>  (228) 
no_task

$$$$

     RDKit          3D

 14 16  0  0  0  0  0  0  0  0999 V2000
  -27.8100   -7.2500  -31.7540 C   0  0  0  0  0  0  0  0  0  0  0  0
  -27.3120   -6.2360  -32.5140 N   0  0  0  0  0  0  0  0  0  0  0  0
  -27.6980   -8.5970  -31.8010 N   0  0  0  0  0  0  0  0  0  0  0  0
  -27.6120   -4.9410  -32.2070 C   0  0  0  0  0  0  0  0  0  0  0  0
  -28.4170   -4.6300  -31.1300 C   0  0  0  0  0  0  0  0  0  0  0  0
  -28.9120   -5.6310  -30.3740 N   0  0  0  0  0  0  0  0  0  0  0  0
  -28.6200   -6.9030  -30.6730 C   0  0  0  0  0  0  0  0  0  0  0  0
  -28.4010   -9.1500  -30.7940 C   0  0  0  0  0  0  0  0  0  0  0  0
  -28.9740   -8.0990  -30.0940 C   0  0  0  0  0  0  0  0  0  0  0  0
  -28.5260  -10.5140  -30.4990 C   0  0  0  0  0  0  0  0  0  0  0  0
  -29.2590  -11.4330  -31.2220 C   0  0  0  0  0  0  0  0  0  0  0  0
  -28.1770  -11.1630  -29.3310 C   0  0  0  0  0  0  0  0  0  0  0  0
  -29.3590  -12.6130  -30.5180 C   0  0  0  0  0  0  0  0  0  0  0  0
  -28.6880  -12.4090  -29.3730 N   0  0  0  0  0  0  0  0  0  0  0  0
  1  2  2  0
  1  3  1  0
  1  7  1  0
  2  4  1  0
  3  8  1  0
  4  5  2  0
  5  6  1  0
  6  7  2  0
  7  9  1  0
  8 10  1  0
  8  9  2  0
 10 11  1  0
 10 12  2  0
 11 13  2  0
 12 14  1  0
 13 14  1  0
M  END
>  <name>  (229) 
Car Nac Nd0 Car Car Nac Car Car Car Car Car Car Car Nd0

>  <indices>  (229) 
[0, 1, 2]

>  <tasks>  (229) 
probe_placing close_aromatic_ring close_aromatic_ring close_aromatic_ring close_aromatic_ring ring_built build_to_Nd0 close_aromatic_ring no_task close_aromatic_ring close_aromatic_ring close_aromatic_ring

>  <prot_clashes>  (229) 
1

>  <NBS phar>  (229) 
0.22000000000000003

>  <NBS_non-phar>  (229) 
0.7166844095502581

>  <NBS>  (229) 
0.9366844095502582

>  <source_stage>  (229) 
scored

>  <source_iter>  (229) 
11

>  <source_parent_mol>  (229) 
2

>  <source_scenario>  (229) 
1 1 2 1 0 0 0 8 0 3 2

>  <source_rank_in_scored_call>  (229) 
0

>  <source_current_task>  (229) 
close_aromatic_ring

>  <scenario>  (229) 
1 1 2 1 0 0 0 8 0 3

>  <current_task>  (229) 
no_task

$$$$

     RDKit          3D

 14 16  0  0  0  0  0  0  0  0999 V2000
  -27.8157   -7.5772  -31.1843 C   0  0  0  0  0  0  0  0  0  0  0  0
  -27.6232   -6.6304  -32.1432 N   0  0  0  0  0  0  0  0  0  0  0  0
  -27.6886   -8.9242  -31.1585 N   0  0  0  0  0  0  0  0  0  0  0  0
  -27.8404   -5.3143  -31.8580 C   0  0  0  0  0  0  0  0  0  0  0  0
  -28.2563   -4.9136  -30.6039 C   0  0  0  0  0  0  0  0  0  0  0  0
  -28.4482   -5.8480  -29.6510 N   0  0  0  0  0  0  0  0  0  0  0  0
  -28.2358   -7.1413  -29.9278 C   0  0  0  0  0  0  0  0  0  0  0  0
  -28.0083   -9.3903  -29.9358 C   0  0  0  0  0  0  0  0  0  0  0  0
  -28.3479   -8.2835  -29.1720 C   0  0  0  0  0  0  0  0  0  0  0  0
  -27.9921  -10.7245  -29.5104 C   0  0  0  0  0  0  0  0  0  0  0  0
  -28.8962  -11.7009  -29.8760 C   0  0  0  0  0  0  0  0  0  0  0  0
  -27.2622  -11.2740  -28.4738 C   0  0  0  0  0  0  0  0  0  0  0  0
  -28.7283  -12.8184  -29.0885 C   0  0  0  0  0  0  0  0  0  0  0  0
  -27.7236  -12.5194  -28.2466 N   0  0  0  0  0  0  0  0  0  0  0  0
  1  2  2  0
  1  3  1  0
  2  4  1  0
  4  5  2  0
  5  6  1  0
  6  7  2  0
  1  7  1  0
  3  8  1  0
  8  9  2  0
  7  9  1  0
  8 10  1  0
 10 11  1  0
 10 12  2  0
 11 13  2  0
 12 14  1  0
 13 14  1  0
M  END
>  <name>  (230) 
Car Nac Nd0 Car Car Nac Car Car Car Car Car Car Car Nd0

>  <indices>  (230) 
[0, 1, 2]

>  <tasks>  (230) 
probe_placing close_aromatic_ring close_aromatic_ring close_aromatic_ring close_aromatic_ring ring_built build_to_Nd0 close_aromatic_ring no_task close_aromatic_ring close_aromatic_ring close_aromatic_ring

>  <prot_clashes>  (230) 
2

>  <NBS phar>  (230) 
0.24000000000000005

>  <NBS_non-phar>  (230) 
0.6753734179905483

>  <NBS>  (230) 
0.9153734179905484

>  <source_stage>  (230) 
scored

>  <source_iter>  (230) 
11

>  <source_parent_mol>  (230) 
2

>  <source_scenario>  (230) 
1 1 2 1 0 0 0 8 0 3 2

>  <source_rank_in_scored_call>  (230) 
1

>  <source_current_task>  (230) 
close_aromatic_ring

>  <scenario>  (230) 
1 1 2 1 0 0 0 8 0 3

>  <current_task>  (230) 
no_task

$$$$

     RDKit          3D

 16 18  0  0  0  0  0  0  0  0999 V2000
  -28.0550   -7.4790  -31.8440 C   0  0  0  0  0  0  0  0  0  0  0  0
  -27.5600   -6.5840  -32.7430 N   0  0  0  0  0  0  0  0  0  0  0  0
  -28.0770   -8.8300  -31.7830 N   0  0  0  0  0  0  0  0  0  0  0  0
  -27.6950   -5.2450  -32.5210 C   0  0  0  0  0  0  0  0  0  0  0  0
  -28.3300   -4.7690  -31.3910 C   0  0  0  0  0  0  0  0  0  0  0  0
  -28.8210   -5.6520  -30.4970 N   0  0  0  0  0  0  0  0  0  0  0  0
  -28.6900   -6.9670  -30.7130 C   0  0  0  0  0  0  0  0  0  0  0  0
  -28.7010   -9.2270  -30.6570 C   0  0  0  0  0  0  0  0  0  0  0  0
  -29.0820   -8.0700  -29.9930 C   0  0  0  0  0  0  0  0  0  0  0  0
  -28.9184  -10.5631  -30.2641 C   0  0  0  0  0  0  0  0  0  0  0  0
  -30.1141  -11.1228  -30.2918 C   0  0  0  0  0  0  0  0  0  0  0  0
  -30.3093  -12.4525  -29.8624 N   0  0  0  0  0  0  0  0  0  0  0  0
  -27.8166  -11.3756  -29.7732 C   0  0  0  0  0  0  0  0  0  0  0  0
  -28.0010  -12.6133  -29.3740 C   0  0  0  0  0  0  0  0  0  0  0  0
  -29.2880  -13.3335  -29.3625 C   0  0  0  0  0  0  0  0  0  0  0  0
  -29.4612  -14.5061  -28.9840 O   0  0  0  0  0  0  0  0  0  0  0  0
  1  2  2  0
  1  3  1  0
  1  7  1  0
  2  4  1  0
  3  8  1  0
  4  5  2  0
  5  6  1  0
  6  7  2  0
  7  9  1  0
  8 10  1  0
  8  9  2  0
 10 11  2  0
 10 13  1  0
 11 12  1  0
 13 14  2  0
 12 15  1  0
 14 15  1  0
 15 16  2  0
M  END
>  <name>  (231) 
Car Nac Nd0 Car Car Nac Car Car Car Car Car Nd0 Car Car Car .=O

>  <indices>  (231) 
[0, 1, 2]

>  <tasks>  (231) 
probe_placing close_aromatic_ring close_aromatic_ring close_aromatic_ring close_aromatic_ring ring_built build_to_Nd0 close_aromatic_ring no_task close_aromatic_ring close_aromatic_ring close_aromatic_ring close_aromatic_ring close_aromatic_ring

>  <prot_clashes>  (231) 
8

>  <NBS phar>  (231) 
0.22000000000000003

>  <NBS_non-phar>  (231) 
0.5307512283325195

>  <NBS>  (231) 
0.7507512283325195

>  <source_stage>  (231) 
scored

>  <source_iter>  (231) 
13

>  <source_parent_mol>  (231) 
0

>  <source_scenario>  (231) 
1 1 2 1 0 0 0 8 2 0 1 1 0

>  <source_rank_in_scored_call>  (231) 
0

>  <source_current_task>  (231) 
fix_Car

>  <scenario>  (231) 
1 1 2 1 0 0 0 8 2 0 1 1

>  <current_task>  (231) 
no_task

$$$$

     RDKit          3D

 18 20  0  0  0  0  0  0  0  0999 V2000
  -27.9910   -7.5780  -31.7110 C   0  0  0  0  0  0  0  0  0  0  0  0
  -27.7150   -6.6400  -32.6230 N   0  0  0  0  0  0  0  0  0  0  0  0
  -28.0500   -8.9210  -31.7840 N   0  0  0  0  0  0  0  0  0  0  0  0
  -27.7110   -5.3090  -32.3290 C   0  0  0  0  0  0  0  0  0  0  0  0
  -27.9990   -4.8960  -31.0450 C   0  0  0  0  0  0  0  0  0  0  0  0
  -28.2880   -5.8690  -30.0870 C   0  0  0  0  0  0  0  0  0  0  0  0
  -28.2870   -7.2200  -30.4110 C   0  0  0  0  0  0  0  0  0  0  0  0
  -28.3770   -9.4260  -30.5580 C   0  0  0  0  0  0  0  0  0  0  0  0
  -28.5280   -8.3630  -29.6810 C   0  0  0  0  0  0  0  0  0  0  0  0
  -28.8570   -8.4340  -28.3490 N   0  0  0  0  0  0  0  0  0  0  0  0
  -27.9050   -8.7100  -27.4700 C   0  0  0  0  0  0  0  0  0  0  0  0
  -26.6740   -8.7980  -27.5710 O   0  0  0  0  0  0  0  0  0  0  0  0
  -28.4790   -8.7777  -25.8271 C   0  0  0  0  0  0  0  0  0  0  0  0
  -27.4509   -8.8621  -24.8959 C   0  0  0  0  0  0  0  0  0  0  0  0
  -27.7745   -9.1961  -23.5864 C   0  0  0  0  0  0  0  0  0  0  0  0
  -29.0881   -9.4350  -23.2349 C   0  0  0  0  0  0  0  0  0  0  0  0
  -30.0852   -9.3476  -24.1632 N   0  0  0  0  0  0  0  0  0  0  0  0
  -29.8021   -9.0255  -25.4416 C   0  0  0  0  0  0  0  0  0  0  0  0
  1  2  2  0
  1  3  1  0
  1  7  1  0
  2  4  1  0
  3  8  1  0
  4  5  2  0
  5  6  1  0
  6  7  2  0
  7  9  1  0
  8  9  2  0
  9 10  1  0
 10 11  1  0
 11 12  2  0
 11 13  1  0
 13 14  2  0
 14 15  1  0
 15 16  2  0
 16 17  1  0
 17 18  2  0
 13 18  1  0
M  END
>  <name>  (232) 
Car Nac Nd0 Car Car Car Car Car Car Nd0 Cs2 .=O Car Car Car Car Nac Car

>  <indices>  (232) 
[0, 1, 2]

>  <tasks>  (232) 
probe_placing close_aromatic_ring close_aromatic_ring close_aromatic_ring close_aromatic_ring ring_built build_to_Nd0 close_aromatic_ring no_task build_to_Nd0 build_DB_to_Cs2 build_SB_to_Cs2 close_aromatic_ring close_aromatic_ring close_aromatic_ring close_aromatic_ring

>  <prot_clashes>  (232) 
1

>  <NBS phar>  (232) 
0.42000000000000004

>  <NBS_non-phar>  (232) 
0.5867977142333984

>  <NBS>  (232) 
1.0067977142333984

>  <source_stage>  (232) 
scored

>  <source_iter>  (232) 
15

>  <source_parent_mol>  (232) 
3

>  <source_scenario>  (232) 
1 1 2 0 0 0 0 2 1 0 0 0 1 0 3

>  <source_rank_in_scored_call>  (232) 
0

>  <source_current_task>  (232) 
close_aromatic_ring

>  <scenario>  (232) 
1 1 2 0 0 0 0 2 1 0 0 0 1 0

>  <current_task>  (232) 
no_task

$$$$

     RDKit          3D

 18 20  0  0  0  0  0  0  0  0999 V2000
  -27.9910   -7.5780  -31.7110 C   0  0  0  0  0  0  0  0  0  0  0  0
  -27.7150   -6.6400  -32.6230 N   0  0  0  0  0  0  0  0  0  0  0  0
  -28.0500   -8.9210  -31.7840 N   0  0  0  0  0  0  0  0  0  0  0  0
  -27.7110   -5.3090  -32.3290 C   0  0  0  0  0  0  0  0  0  0  0  0
  -27.9990   -4.8960  -31.0450 C   0  0  0  0  0  0  0  0  0  0  0  0
  -28.2880   -5.8690  -30.0870 C   0  0  0  0  0  0  0  0  0  0  0  0
  -28.2870   -7.2200  -30.4110 C   0  0  0  0  0  0  0  0  0  0  0  0
  -28.3770   -9.4260  -30.5580 C   0  0  0  0  0  0  0  0  0  0  0  0
  -28.5280   -8.3630  -29.6810 C   0  0  0  0  0  0  0  0  0  0  0  0
  -28.8570   -8.4340  -28.3490 N   0  0  0  0  0  0  0  0  0  0  0  0
  -27.9050   -8.7100  -27.4700 C   0  0  0  0  0  0  0  0  0  0  0  0
  -26.6740   -8.7980  -27.5710 O   0  0  0  0  0  0  0  0  0  0  0  0
  -28.3811   -8.9206  -25.8563 C   0  0  0  0  0  0  0  0  0  0  0  0
  -27.4111   -8.8587  -24.8761 C   0  0  0  0  0  0  0  0  0  0  0  0
  -27.7737   -9.1181  -23.5675 C   0  0  0  0  0  0  0  0  0  0  0  0
  -29.1027   -9.4245  -23.3390 C   0  0  0  0  0  0  0  0  0  0  0  0
  -30.0236   -9.4797  -24.2946 N   0  0  0  0  0  0  0  0  0  0  0  0
  -29.7076   -9.2343  -25.5721 C   0  0  0  0  0  0  0  0  0  0  0  0
  1  2  2  0
  1  3  1  0
  1  7  1  0
  2  4  1  0
  3  8  1  0
  4  5  2  0
  5  6  1  0
  6  7  2  0
  7  9  1  0
  8  9  2  0
  9 10  1  0
 10 11  1  0
 11 12  2  0
 11 13  1  0
 13 14  2  0
 14 15  1  0
 15 16  2  0
 16 17  1  0
 13 18  1  0
 17 18  2  0
M  END
>  <name>  (233) 
Car Nac Nd0 Car Car Car Car Car Car Nd0 Cs2 .=O Car Car Car Car Nac Car

>  <indices>  (233) 
[0, 1, 2]

>  <tasks>  (233) 
probe_placing close_aromatic_ring close_aromatic_ring close_aromatic_ring close_aromatic_ring ring_built build_to_Nd0 close_aromatic_ring no_task build_to_Nd0 build_DB_to_Cs2 build_SB_to_Cs2 close_aromatic_ring close_aromatic_ring close_aromatic_ring close_aromatic_ring

>  <prot_clashes>  (233) 
1

>  <NBS phar>  (233) 
0.4

>  <NBS_non-phar>  (233) 
0.5585765308803983

>  <NBS>  (233) 
0.9585765308803983

>  <source_stage>  (233) 
scored

>  <source_iter>  (233) 
15

>  <source_parent_mol>  (233) 
3

>  <source_scenario>  (233) 
1 1 2 0 0 0 0 2 1 0 0 0 1 0 3

>  <source_rank_in_scored_call>  (233) 
1

>  <source_current_task>  (233) 
close_aromatic_ring

>  <scenario>  (233) 
1 1 2 0 0 0 0 2 1 0 0 0 1 0

>  <current_task>  (233) 
no_task

$$$$

     RDKit          3D

 18 20  0  0  0  0  0  0  0  0999 V2000
  -28.1810   -7.8180  -31.8450 C   0  0  0  0  0  0  0  0  0  0  0  0
  -28.0420   -6.9220  -32.8280 N   0  0  0  0  0  0  0  0  0  0  0  0
  -28.1720   -9.1640  -31.8410 N   0  0  0  0  0  0  0  0  0  0  0  0
  -28.0850   -5.5770  -32.6070 C   0  0  0  0  0  0  0  0  0  0  0  0
  -28.2780   -5.1050  -31.3260 C   0  0  0  0  0  0  0  0  0  0  0  0
  -28.4240   -6.0340  -30.2940 C   0  0  0  0  0  0  0  0  0  0  0  0
  -28.3770   -7.4000  -30.5440 C   0  0  0  0  0  0  0  0  0  0  0  0
  -28.3570   -9.6120  -30.5640 C   0  0  0  0  0  0  0  0  0  0  0  0
  -28.4870   -8.5090  -29.7350 C   0  0  0  0  0  0  0  0  0  0  0  0
  -28.6890   -8.5190  -28.3760 N   0  0  0  0  0  0  0  0  0  0  0  0
  -27.6480   -8.6940  -27.5770 C   0  0  0  0  0  0  0  0  0  0  0  0
  -26.4280   -8.7260  -27.7880 O   0  0  0  0  0  0  0  0  0  0  0  0
  -27.9630   -8.8350  -25.9160 C   0  0  0  0  0  0  0  0  0  0  0  0
  -26.9130   -8.6670  -25.0360 C   0  0  0  0  0  0  0  0  0  0  0  0
  -27.1400   -8.8670  -23.6870 C   0  0  0  0  0  0  0  0  0  0  0  0
  -28.4240   -9.2270  -23.3190 C   0  0  0  0  0  0  0  0  0  0  0  0
  -29.4240   -9.3840  -24.1800 N   0  0  0  0  0  0  0  0  0  0  0  0
  -29.2390   -9.1970  -25.4930 C   0  0  0  0  0  0  0  0  0  0  0  0
  1  2  2  0
  1  3  1  0
  1  7  1  0
  2  4  1  0
  3  8  1  0
  4  5  2  0
  5  6  1  0
  6  7  2  0
  7  9  1  0
  8  9  2  0
  9 10  1  0
 10 11  1  0
 11 12  2  0
 11 13  1  0
 13 18  1  0
 13 14  2  0
 14 15  1  0
 15 16  2  0
 16 17  1  0
 17 18  2  0
M  END
>  <name>  (234) 
Car Nac Nd0 Car Car Car Car Car Car Nd0 Cs2 .=O Car Car Car Car Nac Car

>  <indices>  (234) 
[0, 1, 2]

>  <tasks>  (234) 
probe_placing close_aromatic_ring close_aromatic_ring close_aromatic_ring close_aromatic_ring ring_built build_to_Nd0 close_aromatic_ring no_task build_to_Nd0 build_DB_to_Cs2 build_SB_to_Cs2 close_aromatic_ring close_aromatic_ring close_aromatic_ring close_aromatic_ring

>  <prot_clashes>  (234) 
2

>  <NBS phar>  (234) 
0.34

>  <NBS_non-phar>  (234) 
0.5656440522935655

>  <NBS>  (234) 
0.9056440522935656

>  <source_stage>  (234) 
scored

>  <source_iter>  (234) 
15

>  <source_parent_mol>  (234) 
3

>  <source_scenario>  (234) 
1 1 2 0 0 0 0 2 1 0 0 0 1 0 3

>  <source_rank_in_scored_call>  (234) 
2

>  <source_current_task>  (234) 
close_aromatic_ring

>  <scenario>  (234) 
1 1 2 0 0 0 0 2 1 0 0 0 1 0

>  <current_task>  (234) 
no_task

$$$$

     RDKit          3D

 18 20  0  0  0  0  0  0  0  0999 V2000
  -28.1510   -7.7790  -31.9260 C   0  0  0  0  0  0  0  0  0  0  0  0
  -28.0250   -6.8480  -32.8780 N   0  0  0  0  0  0  0  0  0  0  0  0
  -28.1170   -9.1240  -31.9660 N   0  0  0  0  0  0  0  0  0  0  0  0
  -28.0940   -5.5130  -32.6140 C   0  0  0  0  0  0  0  0  0  0  0  0
  -28.2990   -5.0870  -31.3180 C   0  0  0  0  0  0  0  0  0  0  0  0
  -28.4310   -6.0520  -30.3180 C   0  0  0  0  0  0  0  0  0  0  0  0
  -28.3590   -7.4070  -30.6130 C   0  0  0  0  0  0  0  0  0  0  0  0
  -28.2980   -9.6170  -30.7060 C   0  0  0  0  0  0  0  0  0  0  0  0
  -28.4510   -8.5450  -29.8410 C   0  0  0  0  0  0  0  0  0  0  0  0
  -28.6570   -8.6030  -28.4840 N   0  0  0  0  0  0  0  0  0  0  0  0
  -27.6140   -8.7860  -27.6870 C   0  0  0  0  0  0  0  0  0  0  0  0
  -26.3940   -8.7880  -27.8950 O   0  0  0  0  0  0  0  0  0  0  0  0
  -28.0370   -8.8500  -25.9990 C   0  0  0  0  0  0  0  0  0  0  0  0
  -26.9290   -8.8350  -25.1610 C   0  0  0  0  0  0  0  0  0  0  0  0
  -27.1120   -9.1550  -23.8200 C   0  0  0  0  0  0  0  0  0  0  0  0
  -28.3690   -9.4780  -23.3500 C   0  0  0  0  0  0  0  0  0  0  0  0
  -29.4470   -9.4880  -24.1880 N   0  0  0  0  0  0  0  0  0  0  0  0
  -29.3000   -9.1810  -25.4930 C   0  0  0  0  0  0  0  0  0  0  0  0
  1  2  2  0
  1  3  1  0
  1  7  1  0
  2  4  1  0
  3  8  1  0
  4  5  2  0
  5  6  1  0
  6  7  2  0
  7  9  1  0
  8  9  2  0
  9 10  1  0
 10 11  1  0
 11 12  2  0
 11 13  1  0
 13 18  1  0
 13 14  2  0
 14 15  1  0
 15 16  2  0
 16 17  1  0
 17 18  2  0
M  END
>  <name>  (235) 
Car Nac Nd0 Car Car Car Car Car Car Nd0 Cs2 .=O Car Car Car Car Nac Car

>  <indices>  (235) 
[0, 1, 2]

>  <tasks>  (235) 
probe_placing close_aromatic_ring close_aromatic_ring close_aromatic_ring close_aromatic_ring ring_built build_to_Nd0 close_aromatic_ring no_task build_to_Nd0 build_DB_to_Cs2 build_SB_to_Cs2 close_aromatic_ring close_aromatic_ring close_aromatic_ring close_aromatic_ring

>  <prot_clashes>  (235) 
2

>  <NBS phar>  (235) 
0.22000000000000003

>  <NBS_non-phar>  (235) 
0.5009041892157661

>  <NBS>  (235) 
0.7209041892157662

>  <source_stage>  (235) 
scored

>  <source_iter>  (235) 
15

>  <source_parent_mol>  (235) 
3

>  <source_scenario>  (235) 
1 1 2 0 0 0 0 2 1 0 0 0 1 0 3

>  <source_rank_in_scored_call>  (235) 
3

>  <source_current_task>  (235) 
close_aromatic_ring

>  <scenario>  (235) 
1 1 2 0 0 0 0 2 1 0 0 0 1 0

>  <current_task>  (235) 
no_task

$$$$

     RDKit          3D

 18 20  0  0  0  0  0  0  0  0999 V2000
  -28.0130   -7.6540  -31.7950 C   0  0  0  0  0  0  0  0  0  0  0  0
  -27.8170   -6.7480  -32.7590 N   0  0  0  0  0  0  0  0  0  0  0  0
  -28.0590   -8.9990  -31.8130 N   0  0  0  0  0  0  0  0  0  0  0  0
  -27.8100   -5.4070  -32.5170 C   0  0  0  0  0  0  0  0  0  0  0  0
  -28.0080   -4.9480  -31.2310 C   0  0  0  0  0  0  0  0  0  0  0  0
  -28.2130   -5.8870  -30.2190 C   0  0  0  0  0  0  0  0  0  0  0  0
  -28.2180   -7.2490  -30.4910 C   0  0  0  0  0  0  0  0  0  0  0  0
  -28.2880   -9.4600  -30.5480 C   0  0  0  0  0  0  0  0  0  0  0  0
  -28.3890   -8.3660  -29.7030 C   0  0  0  0  0  0  0  0  0  0  0  0
  -28.6180   -8.3890  -28.3480 N   0  0  0  0  0  0  0  0  0  0  0  0
  -27.6010   -8.6210  -27.5320 C   0  0  0  0  0  0  0  0  0  0  0  0
  -26.3800   -8.6990  -27.7200 O   0  0  0  0  0  0  0  0  0  0  0  0
  -27.9350   -8.8520  -25.9360 C   0  0  0  0  0  0  0  0  0  0  0  0
  -26.9400   -8.6670  -24.9920 C   0  0  0  0  0  0  0  0  0  0  0  0
  -27.2220   -8.8420  -23.6570 C   0  0  0  0  0  0  0  0  0  0  0  0
  -28.5060   -9.2000  -23.3010 C   0  0  0  0  0  0  0  0  0  0  0  0
  -29.2280   -9.2130  -25.5530 C   0  0  0  0  0  0  0  0  0  0  0  0
  -29.4490   -9.3710  -24.2360 N   0  0  0  0  0  0  0  0  0  0  0  0
  1  2  2  0
  1  3  1  0
  1  7  1  0
  2  4  1  0
  3  8  1  0
  4  5  2  0
  5  6  1  0
  6  7  2  0
  7  9  1  0
  8  9  2  0
  9 10  1  0
 10 11  1  0
 11 12  2  0
 11 13  1  0
 13 17  1  0
 13 14  2  0
 14 15  1  0
 15 16  2  0
 16 18  1  0
 17 18  2  0
M  END
>  <name>  (236) 
Car Nac Nd0 Car Car Car Car Car Car Nd0 Cs2 .=O Car Car Car Car Car Nac

>  <indices>  (236) 
[0, 1, 2]

>  <tasks>  (236) 
probe_placing close_aromatic_ring close_aromatic_ring close_aromatic_ring close_aromatic_ring ring_built build_to_Nd0 close_aromatic_ring no_task build_to_Nd0 build_DB_to_Cs2 build_SB_to_Cs2 close_aromatic_ring close_aromatic_ring close_aromatic_ring close_aromatic_ring

>  <prot_clashes>  (236) 
2

>  <NBS phar>  (236) 
0.34

>  <NBS_non-phar>  (236) 
0.624498208363851

>  <NBS>  (236) 
0.9644982083638509

>  <source_stage>  (236) 
scored

>  <source_iter>  (236) 
15

>  <source_parent_mol>  (236) 
4

>  <source_scenario>  (236) 
1 1 2 0 0 0 0 2 1 0 0 0 1 0 4

>  <source_rank_in_scored_call>  (236) 
1

>  <source_current_task>  (236) 
close_aromatic_ring

>  <scenario>  (236) 
1 1 2 0 0 0 0 2 1 0 0 0 1 0

>  <current_task>  (236) 
no_task

$$$$

     RDKit          3D

 18 20  0  0  0  0  0  0  0  0999 V2000
  -27.9910   -7.5780  -31.7110 C   0  0  0  0  0  0  0  0  0  0  0  0
  -27.7150   -6.6400  -32.6230 N   0  0  0  0  0  0  0  0  0  0  0  0
  -28.0500   -8.9210  -31.7840 N   0  0  0  0  0  0  0  0  0  0  0  0
  -27.7110   -5.3090  -32.3290 C   0  0  0  0  0  0  0  0  0  0  0  0
  -27.9990   -4.8960  -31.0450 C   0  0  0  0  0  0  0  0  0  0  0  0
  -28.2880   -5.8690  -30.0870 C   0  0  0  0  0  0  0  0  0  0  0  0
  -28.2870   -7.2200  -30.4110 C   0  0  0  0  0  0  0  0  0  0  0  0
  -28.3770   -9.4260  -30.5580 C   0  0  0  0  0  0  0  0  0  0  0  0
  -28.5280   -8.3630  -29.6810 C   0  0  0  0  0  0  0  0  0  0  0  0
  -28.8570   -8.4340  -28.3490 N   0  0  0  0  0  0  0  0  0  0  0  0
  -27.9050   -8.7100  -27.4700 C   0  0  0  0  0  0  0  0  0  0  0  0
  -26.6740   -8.7980  -27.5710 O   0  0  0  0  0  0  0  0  0  0  0  0
  -28.3584   -8.9956  -25.9131 C   0  0  0  0  0  0  0  0  0  0  0  0
  -27.4336   -8.8609  -24.8923 C   0  0  0  0  0  0  0  0  0  0  0  0
  -27.8152   -9.0820  -23.5888 C   0  0  0  0  0  0  0  0  0  0  0  0
  -29.1260   -9.4354  -23.3419 C   0  0  0  0  0  0  0  0  0  0  0  0
  -29.6799   -9.3543  -25.6397 C   0  0  0  0  0  0  0  0  0  0  0  0
  -29.9991   -9.5584  -24.3495 N   0  0  0  0  0  0  0  0  0  0  0  0
  1  2  2  0
  1  3  1  0
  1  7  1  0
  2  4  1  0
  3  8  1  0
  4  5  2  0
  5  6  1  0
  6  7  2  0
  7  9  1  0
  8  9  2  0
  9 10  1  0
 10 11  1  0
 11 12  2  0
 11 13  1  0
 13 14  2  0
 14 15  1  0
 15 16  2  0
 13 17  1  0
 16 18  1  0
 17 18  2  0
M  END
>  <name>  (237) 
Car Nac Nd0 Car Car Car Car Car Car Nd0 Cs2 .=O Car Car Car Car Car Nac

>  <indices>  (237) 
[0, 1, 2]

>  <tasks>  (237) 
probe_placing close_aromatic_ring close_aromatic_ring close_aromatic_ring close_aromatic_ring ring_built build_to_Nd0 close_aromatic_ring no_task build_to_Nd0 build_DB_to_Cs2 build_SB_to_Cs2 close_aromatic_ring close_aromatic_ring close_aromatic_ring close_aromatic_ring

>  <prot_clashes>  (237) 
0

>  <NBS phar>  (237) 
0.4

>  <NBS_non-phar>  (237) 
0.5511336326599121

>  <NBS>  (237) 
0.9511336326599121

>  <source_stage>  (237) 
scored

>  <source_iter>  (237) 
15

>  <source_parent_mol>  (237) 
4

>  <source_scenario>  (237) 
1 1 2 0 0 0 0 2 1 0 0 0 1 0 4

>  <source_rank_in_scored_call>  (237) 
2

>  <source_current_task>  (237) 
close_aromatic_ring

>  <scenario>  (237) 
1 1 2 0 0 0 0 2 1 0 0 0 1 0

>  <current_task>  (237) 
no_task

$$$$

     RDKit          3D

 18 20  0  0  0  0  0  0  0  0999 V2000
  -27.9910   -7.5780  -31.7110 C   0  0  0  0  0  0  0  0  0  0  0  0
  -27.7150   -6.6400  -32.6230 N   0  0  0  0  0  0  0  0  0  0  0  0
  -28.0500   -8.9210  -31.7840 N   0  0  0  0  0  0  0  0  0  0  0  0
  -27.7110   -5.3090  -32.3290 C   0  0  0  0  0  0  0  0  0  0  0  0
  -27.9990   -4.8960  -31.0450 C   0  0  0  0  0  0  0  0  0  0  0  0
  -28.2880   -5.8690  -30.0870 C   0  0  0  0  0  0  0  0  0  0  0  0
  -28.2870   -7.2200  -30.4110 C   0  0  0  0  0  0  0  0  0  0  0  0
  -28.3770   -9.4260  -30.5580 C   0  0  0  0  0  0  0  0  0  0  0  0
  -28.5280   -8.3630  -29.6810 C   0  0  0  0  0  0  0  0  0  0  0  0
  -28.8570   -8.4340  -28.3490 N   0  0  0  0  0  0  0  0  0  0  0  0
  -27.9050   -8.7100  -27.4700 C   0  0  0  0  0  0  0  0  0  0  0  0
  -26.6740   -8.7980  -27.5710 O   0  0  0  0  0  0  0  0  0  0  0  0
  -28.4785   -8.7738  -25.8544 C   0  0  0  0  0  0  0  0  0  0  0  0
  -27.4728   -8.8627  -24.9013 C   0  0  0  0  0  0  0  0  0  0  0  0
  -27.7841   -9.1942  -23.5863 C   0  0  0  0  0  0  0  0  0  0  0  0
  -29.1005   -9.4397  -23.2108 C   0  0  0  0  0  0  0  0  0  0  0  0
  -30.0724   -9.3465  -24.1644 N   0  0  0  0  0  0  0  0  0  0  0  0
  -29.7717   -9.0269  -25.4319 C   0  0  0  0  0  0  0  0  0  0  0  0
  1  2  2  0
  1  3  1  0
  1  7  1  0
  2  4  1  0
  3  8  1  0
  4  5  2  0
  5  6  1  0
  6  7  2  0
  7  9  1  0
  8  9  2  0
  9 10  1  0
 10 11  1  0
 11 12  2  0
 11 13  1  0
 13 14  2  0
 14 15  1  0
 15 16  2  0
 16 17  1  0
 17 18  2  0
 13 18  1  0
M  END
>  <name>  (238) 
Car Nac Nd0 Car Car Car Car Car Car Nd0 Cs2 .=O Car Car Car Car Nac Car

>  <indices>  (238) 
[0, 1, 2]

>  <tasks>  (238) 
probe_placing close_aromatic_ring close_aromatic_ring close_aromatic_ring close_aromatic_ring ring_built build_to_Nd0 close_aromatic_ring no_task build_to_Nd0 build_DB_to_Cs2 build_SB_to_Cs2 close_aromatic_ring close_aromatic_ring close_aromatic_ring close_aromatic_ring

>  <prot_clashes>  (238) 
1

>  <NBS phar>  (238) 
0.4

>  <NBS_non-phar>  (238) 
0.5670745637681749

>  <NBS>  (238) 
0.9670745637681749

>  <source_stage>  (238) 
scored

>  <source_iter>  (238) 
15

>  <source_parent_mol>  (238) 
3

>  <source_scenario>  (238) 
1 1 2 0 0 0 0 2 1 0 0 0 1 0 3

>  <source_rank_in_scored_call>  (238) 
0

>  <source_current_task>  (238) 
close_aromatic_ring

>  <scenario>  (238) 
1 1 2 0 0 0 0 2 1 0 0 0 1 0

>  <current_task>  (238) 
no_task

$$$$

     RDKit          3D

 18 20  0  0  0  0  0  0  0  0999 V2000
  -27.9910   -7.5780  -31.7110 C   0  0  0  0  0  0  0  0  0  0  0  0
  -27.7150   -6.6400  -32.6230 N   0  0  0  0  0  0  0  0  0  0  0  0
  -28.0500   -8.9210  -31.7840 N   0  0  0  0  0  0  0  0  0  0  0  0
  -27.7110   -5.3090  -32.3290 C   0  0  0  0  0  0  0  0  0  0  0  0
  -27.9990   -4.8960  -31.0450 C   0  0  0  0  0  0  0  0  0  0  0  0
  -28.2880   -5.8690  -30.0870 C   0  0  0  0  0  0  0  0  0  0  0  0
  -28.2870   -7.2200  -30.4110 C   0  0  0  0  0  0  0  0  0  0  0  0
  -28.3770   -9.4260  -30.5580 C   0  0  0  0  0  0  0  0  0  0  0  0
  -28.5280   -8.3630  -29.6810 C   0  0  0  0  0  0  0  0  0  0  0  0
  -28.8570   -8.4340  -28.3490 N   0  0  0  0  0  0  0  0  0  0  0  0
  -27.9050   -8.7100  -27.4700 C   0  0  0  0  0  0  0  0  0  0  0  0
  -26.6740   -8.7980  -27.5710 O   0  0  0  0  0  0  0  0  0  0  0  0
  -28.3813   -8.9095  -25.8978 C   0  0  0  0  0  0  0  0  0  0  0  0
  -27.4436   -8.8648  -24.8872 C   0  0  0  0  0  0  0  0  0  0  0  0
  -27.8064   -9.1260  -23.5826 C   0  0  0  0  0  0  0  0  0  0  0  0
  -29.1196   -9.4329  -23.3004 C   0  0  0  0  0  0  0  0  0  0  0  0
  -29.9917   -9.4658  -24.3004 N   0  0  0  0  0  0  0  0  0  0  0  0
  -29.7023   -9.2204  -25.5985 C   0  0  0  0  0  0  0  0  0  0  0  0
  1  2  2  0
  1  3  1  0
  1  7  1  0
  2  4  1  0
  3  8  1  0
  4  5  2  0
  5  6  1  0
  6  7  2  0
  7  9  1  0
  8  9  2  0
  9 10  1  0
 10 11  1  0
 11 12  2  0
 11 13  1  0
 13 14  2  0
 14 15  1  0
 15 16  2  0
 16 17  1  0
 13 18  1  0
 17 18  2  0
M  END
>  <name>  (239) 
Car Nac Nd0 Car Car Car Car Car Car Nd0 Cs2 .=O Car Car Car Car Nac Car

>  <indices>  (239) 
[0, 1, 2]

>  <tasks>  (239) 
probe_placing close_aromatic_ring close_aromatic_ring close_aromatic_ring close_aromatic_ring ring_built build_to_Nd0 close_aromatic_ring no_task build_to_Nd0 build_DB_to_Cs2 build_SB_to_Cs2 close_aromatic_ring close_aromatic_ring close_aromatic_ring close_aromatic_ring

>  <prot_clashes>  (239) 
1

>  <NBS phar>  (239) 
0.4

>  <NBS_non-phar>  (239) 
0.5501651763916016

>  <NBS>  (239) 
0.9501651763916016

>  <source_stage>  (239) 
scored

>  <source_iter>  (239) 
15

>  <source_parent_mol>  (239) 
3

>  <source_scenario>  (239) 
1 1 2 0 0 0 0 2 1 0 0 0 1 0 3

>  <source_rank_in_scored_call>  (239) 
1

>  <source_current_task>  (239) 
close_aromatic_ring

>  <scenario>  (239) 
1 1 2 0 0 0 0 2 1 0 0 0 1 0

>  <current_task>  (239) 
no_task

$$$$

     RDKit          3D

 18 20  0  0  0  0  0  0  0  0999 V2000
  -28.0660   -7.7220  -31.8300 C   0  0  0  0  0  0  0  0  0  0  0  0
  -27.8940   -6.8090  -32.7910 N   0  0  0  0  0  0  0  0  0  0  0  0
  -28.0760   -9.0680  -31.8520 N   0  0  0  0  0  0  0  0  0  0  0  0
  -27.9230   -5.4690  -32.5450 C   0  0  0  0  0  0  0  0  0  0  0  0
  -28.1360   -5.0190  -31.2580 C   0  0  0  0  0  0  0  0  0  0  0  0
  -28.3170   -5.9660  -30.2490 C   0  0  0  0  0  0  0  0  0  0  0  0
  -28.2840   -7.3270  -30.5250 C   0  0  0  0  0  0  0  0  0  0  0  0
  -28.2940   -9.5390  -30.5880 C   0  0  0  0  0  0  0  0  0  0  0  0
  -28.4260   -8.4500  -29.7400 C   0  0  0  0  0  0  0  0  0  0  0  0
  -28.6570   -8.4840  -28.3860 N   0  0  0  0  0  0  0  0  0  0  0  0
  -27.6340   -8.6900  -27.5690 C   0  0  0  0  0  0  0  0  0  0  0  0
  -26.4110   -8.7350  -27.7560 O   0  0  0  0  0  0  0  0  0  0  0  0
  -27.9890   -8.8480  -25.9610 C   0  0  0  0  0  0  0  0  0  0  0  0
  -26.9860   -8.7300  -25.0230 C   0  0  0  0  0  0  0  0  0  0  0  0
  -27.2430   -8.9560  -23.6880 C   0  0  0  0  0  0  0  0  0  0  0  0
  -28.5210   -9.3020  -23.3000 C   0  0  0  0  0  0  0  0  0  0  0  0
  -29.4590   -9.4050  -24.2330 N   0  0  0  0  0  0  0  0  0  0  0  0
  -29.2720   -9.1970  -25.5570 C   0  0  0  0  0  0  0  0  0  0  0  0
  1  2  2  0
  1  3  1  0
  1  7  1  0
  2  4  1  0
  3  8  1  0
  4  5  2  0
  5  6  1  0
  6  7  2  0
  7  9  1  0
  8  9  2  0
  9 10  1  0
 10 11  1  0
 11 12  2  0
 11 13  1  0
 13 18  1  0
 13 14  2  0
 14 15  1  0
 15 16  2  0
 16 17  1  0
 17 18  2  0
M  END
>  <name>  (240) 
Car Nac Nd0 Car Car Car Car Car Car Nd0 Cs2 .=O Car Car Car Car Nac Car

>  <indices>  (240) 
[0, 1, 2]

>  <tasks>  (240) 
probe_placing close_aromatic_ring close_aromatic_ring close_aromatic_ring close_aromatic_ring ring_built build_to_Nd0 close_aromatic_ring no_task build_to_Nd0 build_DB_to_Cs2 build_SB_to_Cs2 close_aromatic_ring close_aromatic_ring close_aromatic_ring close_aromatic_ring

>  <prot_clashes>  (240) 
2

>  <NBS phar>  (240) 
0.34

>  <NBS_non-phar>  (240) 
0.5994965235392252

>  <NBS>  (240) 
0.9394965235392252

>  <source_stage>  (240) 
scored

>  <source_iter>  (240) 
15

>  <source_parent_mol>  (240) 
3

>  <source_scenario>  (240) 
1 1 2 0 0 0 0 2 1 0 0 0 1 0 3

>  <source_rank_in_scored_call>  (240) 
2

>  <source_current_task>  (240) 
close_aromatic_ring

>  <scenario>  (240) 
1 1 2 0 0 0 0 2 1 0 0 0 1 0

>  <current_task>  (240) 
no_task

$$$$

     RDKit          3D

 18 20  0  0  0  0  0  0  0  0999 V2000
  -28.0630   -7.7360  -31.8510 C   0  0  0  0  0  0  0  0  0  0  0  0
  -27.9220   -6.8440  -32.8370 N   0  0  0  0  0  0  0  0  0  0  0  0
  -28.0520   -9.0820  -31.8410 N   0  0  0  0  0  0  0  0  0  0  0  0
  -27.9670   -5.4990  -32.6210 C   0  0  0  0  0  0  0  0  0  0  0  0
  -28.1650   -5.0220  -31.3420 C   0  0  0  0  0  0  0  0  0  0  0  0
  -28.3140   -5.9470  -30.3070 C   0  0  0  0  0  0  0  0  0  0  0  0
  -28.2640   -7.3140  -30.5520 C   0  0  0  0  0  0  0  0  0  0  0  0
  -28.2420   -9.5260  -30.5640 C   0  0  0  0  0  0  0  0  0  0  0  0
  -28.3760   -8.4200  -29.7390 C   0  0  0  0  0  0  0  0  0  0  0  0
  -28.5820   -8.4250  -28.3810 N   0  0  0  0  0  0  0  0  0  0  0  0
  -27.5430   -8.5960  -27.5770 C   0  0  0  0  0  0  0  0  0  0  0  0
  -26.3230   -8.6270  -27.7840 O   0  0  0  0  0  0  0  0  0  0  0  0
  -27.9690   -8.5890  -25.9150 C   0  0  0  0  0  0  0  0  0  0  0  0
  -26.8800   -8.5670  -25.0530 C   0  0  0  0  0  0  0  0  0  0  0  0
  -27.0560   -8.8310  -23.6990 C   0  0  0  0  0  0  0  0  0  0  0  0
  -28.3190   -9.1200  -23.1930 C   0  0  0  0  0  0  0  0  0  0  0  0
  -29.3730   -9.1370  -24.0570 N   0  0  0  0  0  0  0  0  0  0  0  0
  -29.2040   -8.8810  -25.3640 C   0  0  0  0  0  0  0  0  0  0  0  0
  1  2  2  0
  1  3  1  0
  1  7  1  0
  2  4  1  0
  3  8  1  0
  4  5  2  0
  5  6  1  0
  6  7  2  0
  7  9  1  0
  8  9  2  0
  9 10  1  0
 10 11  1  0
 11 12  2  0
 11 13  1  0
 13 18  1  0
 13 14  2  0
 14 15  1  0
 15 16  2  0
 16 17  1  0
 17 18  2  0
M  END
>  <name>  (241) 
Car Nac Nd0 Car Car Car Car Car Car Nd0 Cs2 .=O Car Car Car Car Nac Car

>  <indices>  (241) 
[0, 1, 2]

>  <tasks>  (241) 
probe_placing close_aromatic_ring close_aromatic_ring close_aromatic_ring close_aromatic_ring ring_built build_to_Nd0 close_aromatic_ring no_task build_to_Nd0 build_DB_to_Cs2 build_SB_to_Cs2 close_aromatic_ring close_aromatic_ring close_aromatic_ring close_aromatic_ring

>  <prot_clashes>  (241) 
3

>  <NBS phar>  (241) 
0.32

>  <NBS_non-phar>  (241) 
0.5738101005554199

>  <NBS>  (241) 
0.89381010055542

>  <source_stage>  (241) 
scored

>  <source_iter>  (241) 
15

>  <source_parent_mol>  (241) 
3

>  <source_scenario>  (241) 
1 1 2 0 0 0 0 2 1 0 0 0 1 0 3

>  <source_rank_in_scored_call>  (241) 
3

>  <source_current_task>  (241) 
close_aromatic_ring

>  <scenario>  (241) 
1 1 2 0 0 0 0 2 1 0 0 0 1 0

>  <current_task>  (241) 
no_task

$$$$

     RDKit          3D

 18 20  0  0  0  0  0  0  0  0999 V2000
  -28.0400   -7.6690  -31.8090 C   0  0  0  0  0  0  0  0  0  0  0  0
  -27.8570   -6.7640  -32.7760 N   0  0  0  0  0  0  0  0  0  0  0  0
  -28.0670   -9.0150  -31.8230 N   0  0  0  0  0  0  0  0  0  0  0  0
  -27.8690   -5.4220  -32.5370 C   0  0  0  0  0  0  0  0  0  0  0  0
  -28.0740   -4.9620  -31.2530 C   0  0  0  0  0  0  0  0  0  0  0  0
  -28.2650   -5.9010  -30.2380 C   0  0  0  0  0  0  0  0  0  0  0  0
  -28.2500   -7.2640  -30.5060 C   0  0  0  0  0  0  0  0  0  0  0  0
  -28.2900   -9.4750  -30.5560 C   0  0  0  0  0  0  0  0  0  0  0  0
  -28.4060   -8.3800  -29.7140 C   0  0  0  0  0  0  0  0  0  0  0  0
  -28.6350   -8.4030  -28.3600 N   0  0  0  0  0  0  0  0  0  0  0  0
  -27.6140   -8.6170  -27.5430 C   0  0  0  0  0  0  0  0  0  0  0  0
  -26.3920   -8.6790  -27.7310 O   0  0  0  0  0  0  0  0  0  0  0  0
  -27.9480   -8.8500  -25.9240 C   0  0  0  0  0  0  0  0  0  0  0  0
  -26.9380   -8.6430  -25.0130 C   0  0  0  0  0  0  0  0  0  0  0  0
  -27.2260   -8.8190  -23.6770 C   0  0  0  0  0  0  0  0  0  0  0  0
  -28.5230   -9.2000  -23.3140 C   0  0  0  0  0  0  0  0  0  0  0  0
  -29.2290   -9.2260  -25.5670 C   0  0  0  0  0  0  0  0  0  0  0  0
  -29.4570   -9.3860  -24.2390 N   0  0  0  0  0  0  0  0  0  0  0  0
  1  2  2  0
  1  3  1  0
  1  7  1  0
  2  4  1  0
  3  8  1  0
  4  5  2  0
  5  6  1  0
  6  7  2  0
  7  9  1  0
  8  9  2  0
  9 10  1  0
 10 11  1  0
 11 12  2  0
 11 13  1  0
 13 17  1  0
 13 14  2  0
 14 15  1  0
 15 16  2  0
 16 18  1  0
 17 18  2  0
M  END
>  <name>  (242) 
Car Nac Nd0 Car Car Car Car Car Car Nd0 Cs2 .=O Car Car Car Car Car Nac

>  <indices>  (242) 
[0, 1, 2]

>  <tasks>  (242) 
probe_placing close_aromatic_ring close_aromatic_ring close_aromatic_ring close_aromatic_ring ring_built build_to_Nd0 close_aromatic_ring no_task build_to_Nd0 build_DB_to_Cs2 build_SB_to_Cs2 close_aromatic_ring close_aromatic_ring close_aromatic_ring close_aromatic_ring

>  <prot_clashes>  (242) 
2

>  <NBS phar>  (242) 
0.34

>  <NBS_non-phar>  (242) 
0.6357057359483507

>  <NBS>  (242) 
0.9757057359483507

>  <source_stage>  (242) 
scored

>  <source_iter>  (242) 
15

>  <source_parent_mol>  (242) 
4

>  <source_scenario>  (242) 
1 1 2 0 0 0 0 2 1 0 0 0 1 0 4

>  <source_rank_in_scored_call>  (242) 
0

>  <source_current_task>  (242) 
close_aromatic_ring

>  <scenario>  (242) 
1 1 2 0 0 0 0 2 1 0 0 0 1 0

>  <current_task>  (242) 
no_task

$$$$

     RDKit          3D

 18 20  0  0  0  0  0  0  0  0999 V2000
  -27.9910   -7.5780  -31.7110 C   0  0  0  0  0  0  0  0  0  0  0  0
  -27.7150   -6.6400  -32.6230 N   0  0  0  0  0  0  0  0  0  0  0  0
  -28.0500   -8.9210  -31.7840 N   0  0  0  0  0  0  0  0  0  0  0  0
  -27.7110   -5.3090  -32.3290 C   0  0  0  0  0  0  0  0  0  0  0  0
  -27.9990   -4.8960  -31.0450 C   0  0  0  0  0  0  0  0  0  0  0  0
  -28.2880   -5.8690  -30.0870 C   0  0  0  0  0  0  0  0  0  0  0  0
  -28.2870   -7.2200  -30.4110 C   0  0  0  0  0  0  0  0  0  0  0  0
  -28.3770   -9.4260  -30.5580 C   0  0  0  0  0  0  0  0  0  0  0  0
  -28.5280   -8.3630  -29.6810 C   0  0  0  0  0  0  0  0  0  0  0  0
  -28.8570   -8.4340  -28.3490 N   0  0  0  0  0  0  0  0  0  0  0  0
  -27.9050   -8.7100  -27.4700 C   0  0  0  0  0  0  0  0  0  0  0  0
  -26.6740   -8.7980  -27.5710 O   0  0  0  0  0  0  0  0  0  0  0  0
  -28.3645   -8.9995  -25.8906 C   0  0  0  0  0  0  0  0  0  0  0  0
  -27.4187   -8.8565  -24.9007 C   0  0  0  0  0  0  0  0  0  0  0  0
  -27.8087   -9.0794  -23.5982 C   0  0  0  0  0  0  0  0  0  0  0  0
  -29.1386   -9.4379  -23.3469 C   0  0  0  0  0  0  0  0  0  0  0  0
  -29.6760   -9.3530  -25.6436 C   0  0  0  0  0  0  0  0  0  0  0  0
  -30.0057   -9.5603  -24.3453 N   0  0  0  0  0  0  0  0  0  0  0  0
  1  2  2  0
  1  3  1  0
  1  7  1  0
  2  4  1  0
  3  8  1  0
  4  5  2  0
  5  6  1  0
  6  7  2  0
  7  9  1  0
  8  9  2  0
  9 10  1  0
 10 11  1  0
 11 12  2  0
 11 13  1  0
 13 14  2  0
 14 15  1  0
 15 16  2  0
 13 17  1  0
 16 18  1  0
 17 18  2  0
M  END
>  <name>  (243) 
Car Nac Nd0 Car Car Car Car Car Car Nd0 Cs2 .=O Car Car Car Car Car Nac

>  <indices>  (243) 
[0, 1, 2]

>  <tasks>  (243) 
probe_placing close_aromatic_ring close_aromatic_ring close_aromatic_ring close_aromatic_ring ring_built build_to_Nd0 close_aromatic_ring no_task build_to_Nd0 build_DB_to_Cs2 build_SB_to_Cs2 close_aromatic_ring close_aromatic_ring close_aromatic_ring close_aromatic_ring

>  <prot_clashes>  (243) 
0

>  <NBS phar>  (243) 
0.4

>  <NBS_non-phar>  (243) 
0.5626142819722494

>  <NBS>  (243) 
0.9626142819722494

>  <source_stage>  (243) 
scored

>  <source_iter>  (243) 
15

>  <source_parent_mol>  (243) 
4

>  <source_scenario>  (243) 
1 1 2 0 0 0 0 2 1 0 0 0 1 0 4

>  <source_rank_in_scored_call>  (243) 
2

>  <source_current_task>  (243) 
close_aromatic_ring

>  <scenario>  (243) 
1 1 2 0 0 0 0 2 1 0 0 0 1 0

>  <current_task>  (243) 
no_task

$$$$

     RDKit          3D

 18 20  0  0  0  0  0  0  0  0999 V2000
  -27.9910   -7.5780  -31.7110 C   0  0  0  0  0  0  0  0  0  0  0  0
  -27.7150   -6.6400  -32.6230 N   0  0  0  0  0  0  0  0  0  0  0  0
  -28.0500   -8.9210  -31.7840 N   0  0  0  0  0  0  0  0  0  0  0  0
  -27.7110   -5.3090  -32.3290 C   0  0  0  0  0  0  0  0  0  0  0  0
  -27.9990   -4.8960  -31.0450 C   0  0  0  0  0  0  0  0  0  0  0  0
  -28.2880   -5.8690  -30.0870 C   0  0  0  0  0  0  0  0  0  0  0  0
  -28.2870   -7.2200  -30.4110 C   0  0  0  0  0  0  0  0  0  0  0  0
  -28.3770   -9.4260  -30.5580 C   0  0  0  0  0  0  0  0  0  0  0  0
  -28.5280   -8.3630  -29.6810 C   0  0  0  0  0  0  0  0  0  0  0  0
  -28.8570   -8.4340  -28.3490 N   0  0  0  0  0  0  0  0  0  0  0  0
  -27.9050   -8.7100  -27.4700 C   0  0  0  0  0  0  0  0  0  0  0  0
  -26.6740   -8.7980  -27.5710 O   0  0  0  0  0  0  0  0  0  0  0  0
  -28.3124   -8.9850  -25.9669 C   0  0  0  0  0  0  0  0  0  0  0  0
  -27.4182   -8.8666  -24.9326 C   0  0  0  0  0  0  0  0  0  0  0  0
  -27.8198   -9.0677  -23.6264 C   0  0  0  0  0  0  0  0  0  0  0  0
  -29.1105   -9.3844  -23.3751 N   0  0  0  0  0  0  0  0  0  0  0  0
  -29.6168   -9.3099  -25.6552 C   0  0  0  0  0  0  0  0  0  0  0  0
  -30.0361   -9.5153  -24.3459 C   0  0  0  0  0  0  0  0  0  0  0  0
  1  2  2  0
  1  3  1  0
  1  7  1  0
  2  4  1  0
  3  8  1  0
  4  5  2  0
  5  6  1  0
  6  7  2  0
  7  9  1  0
  8  9  2  0
  9 10  1  0
 10 11  1  0
 11 12  2  0
 11 13  1  0
 13 14  2  0
 14 15  1  0
 15 16  2  0
 13 17  1  0
 16 18  1  0
 17 18  2  0
M  END
>  <name>  (244) 
Car Nac Nd0 Car Car Car Car Car Car Nd0 Cs2 .=O Car Car Car Nac Car Car

>  <indices>  (244) 
[0, 1, 2]

>  <tasks>  (244) 
probe_placing close_aromatic_ring close_aromatic_ring close_aromatic_ring close_aromatic_ring ring_built build_to_Nd0 close_aromatic_ring no_task build_to_Nd0 build_DB_to_Cs2 build_SB_to_Cs2 close_aromatic_ring close_aromatic_ring close_aromatic_ring close_aromatic_ring

>  <prot_clashes>  (244) 
0

>  <NBS phar>  (244) 
0.4

>  <NBS_non-phar>  (244) 
0.6126685672336154

>  <NBS>  (244) 
1.0126685672336153

>  <source_stage>  (244) 
scored

>  <source_iter>  (244) 
15

>  <source_parent_mol>  (244) 
3

>  <source_scenario>  (244) 
1 1 2 0 0 0 0 2 1 0 0 0 1 1 3

>  <source_rank_in_scored_call>  (244) 
0

>  <source_current_task>  (244) 
close_aromatic_ring

>  <scenario>  (244) 
1 1 2 0 0 0 0 2 1 0 0 0 1 1

>  <current_task>  (244) 
no_task

$$$$

     RDKit          3D

 18 20  0  0  0  0  0  0  0  0999 V2000
  -28.0680   -7.7240  -31.8570 C   0  0  0  0  0  0  0  0  0  0  0  0
  -27.8920   -6.8230  -32.8290 N   0  0  0  0  0  0  0  0  0  0  0  0
  -28.0940   -9.0700  -31.8640 N   0  0  0  0  0  0  0  0  0  0  0  0
  -27.9040   -5.4800  -32.5970 C   0  0  0  0  0  0  0  0  0  0  0  0
  -28.1010   -5.0140  -31.3140 C   0  0  0  0  0  0  0  0  0  0  0  0
  -28.2840   -5.9480  -30.2930 C   0  0  0  0  0  0  0  0  0  0  0  0
  -28.2700   -7.3120  -30.5540 C   0  0  0  0  0  0  0  0  0  0  0  0
  -28.3080   -9.5240  -30.5940 C   0  0  0  0  0  0  0  0  0  0  0  0
  -28.4190   -8.4250  -29.7570 C   0  0  0  0  0  0  0  0  0  0  0  0
  -28.6390   -8.4420  -28.4010 N   0  0  0  0  0  0  0  0  0  0  0  0
  -27.6130   -8.6520  -27.5900 C   0  0  0  0  0  0  0  0  0  0  0  0
  -26.3920   -8.7130  -27.7850 O   0  0  0  0  0  0  0  0  0  0  0  0
  -27.8910   -8.8650  -26.0480 C   0  0  0  0  0  0  0  0  0  0  0  0
  -26.9220   -8.6760  -25.0960 C   0  0  0  0  0  0  0  0  0  0  0  0
  -27.2130   -8.8250  -23.7530 C   0  0  0  0  0  0  0  0  0  0  0  0
  -28.4690   -9.1620  -23.3850 N   0  0  0  0  0  0  0  0  0  0  0  0
  -29.1570   -9.2080  -25.6170 C   0  0  0  0  0  0  0  0  0  0  0  0
  -29.4650   -9.3620  -24.2710 C   0  0  0  0  0  0  0  0  0  0  0  0
  1  2  2  0
  1  3  1  0
  1  7  1  0
  2  4  1  0
  3  8  1  0
  4  5  2  0
  5  6  1  0
  6  7  2  0
  7  9  1  0
  8  9  2  0
  9 10  1  0
 10 11  1  0
 11 12  2  0
 11 13  1  0
 13 17  1  0
 13 14  2  0
 14 15  1  0
 15 16  2  0
 16 18  1  0
 17 18  2  0
M  END
>  <name>  (245) 
Car Nac Nd0 Car Car Car Car Car Car Nd0 Cs2 .=O Car Car Car Nac Car Car

>  <indices>  (245) 
[0, 1, 2]

>  <tasks>  (245) 
probe_placing close_aromatic_ring close_aromatic_ring close_aromatic_ring close_aromatic_ring ring_built build_to_Nd0 close_aromatic_ring no_task build_to_Nd0 build_DB_to_Cs2 build_SB_to_Cs2 close_aromatic_ring close_aromatic_ring close_aromatic_ring close_aromatic_ring

>  <prot_clashes>  (245) 
2

>  <NBS phar>  (245) 
0.34

>  <NBS_non-phar>  (245) 
0.6330793168809679

>  <NBS>  (245) 
0.9730793168809679

>  <source_stage>  (245) 
scored

>  <source_iter>  (245) 
15

>  <source_parent_mol>  (245) 
3

>  <source_scenario>  (245) 
1 1 2 0 0 0 0 2 1 0 0 0 1 1 3

>  <source_rank_in_scored_call>  (245) 
3

>  <source_current_task>  (245) 
close_aromatic_ring

>  <scenario>  (245) 
1 1 2 0 0 0 0 2 1 0 0 0 1 1

>  <current_task>  (245) 
no_task

$$$$

     RDKit          3D

 18 20  0  0  0  0  0  0  0  0999 V2000
  -28.0380   -7.6850  -31.8020 C   0  0  0  0  0  0  0  0  0  0  0  0
  -27.8540   -6.7780  -32.7670 N   0  0  0  0  0  0  0  0  0  0  0  0
  -28.0580   -9.0310  -31.8180 N   0  0  0  0  0  0  0  0  0  0  0  0
  -27.8740   -5.4360  -32.5270 C   0  0  0  0  0  0  0  0  0  0  0  0
  -28.0880   -4.9790  -31.2440 C   0  0  0  0  0  0  0  0  0  0  0  0
  -28.2800   -5.9190  -30.2300 C   0  0  0  0  0  0  0  0  0  0  0  0
  -28.2570   -7.2820  -30.5000 C   0  0  0  0  0  0  0  0  0  0  0  0
  -28.2850   -9.4940  -30.5540 C   0  0  0  0  0  0  0  0  0  0  0  0
  -28.4110   -8.4000  -29.7110 C   0  0  0  0  0  0  0  0  0  0  0  0
  -28.6470   -8.4250  -28.3580 N   0  0  0  0  0  0  0  0  0  0  0  0
  -27.6300   -8.6360  -27.5360 C   0  0  0  0  0  0  0  0  0  0  0  0
  -26.4060   -8.6920  -27.7170 O   0  0  0  0  0  0  0  0  0  0  0  0
  -27.9340   -8.8640  -25.9790 C   0  0  0  0  0  0  0  0  0  0  0  0
  -26.9410   -8.6640  -25.0430 C   0  0  0  0  0  0  0  0  0  0  0  0
  -27.2840   -8.8330  -23.7020 C   0  0  0  0  0  0  0  0  0  0  0  0
  -28.5400   -9.1780  -23.3340 N   0  0  0  0  0  0  0  0  0  0  0  0
  -29.2080   -9.2140  -25.5910 C   0  0  0  0  0  0  0  0  0  0  0  0
  -29.5100   -9.3710  -24.2540 C   0  0  0  0  0  0  0  0  0  0  0  0
  1  2  2  0
  1  3  1  0
  1  7  1  0
  2  4  1  0
  3  8  1  0
  4  5  2  0
  5  6  1  0
  6  7  2  0
  7  9  1  0
  8  9  2  0
  9 10  1  0
 10 11  1  0
 11 12  2  0
 11 13  1  0
 13 17  1  0
 13 14  2  0
 14 15  1  0
 15 16  2  0
 16 18  1  0
 17 18  2  0
M  END
>  <name>  (246) 
Car Nac Nd0 Car Car Car Car Car Car Nd0 Cs2 .=O Car Car Car Nac Car Car

>  <indices>  (246) 
[0, 1, 2]

>  <tasks>  (246) 
probe_placing close_aromatic_ring close_aromatic_ring close_aromatic_ring close_aromatic_ring ring_built build_to_Nd0 close_aromatic_ring no_task build_to_Nd0 build_DB_to_Cs2 build_SB_to_Cs2 close_aromatic_ring close_aromatic_ring close_aromatic_ring close_aromatic_ring

>  <prot_clashes>  (246) 
2

>  <NBS phar>  (246) 
0.34

>  <NBS_non-phar>  (246) 
0.6721572346157498

>  <NBS>  (246) 
1.01215723461575

>  <source_stage>  (246) 
scored

>  <source_iter>  (246) 
15

>  <source_parent_mol>  (246) 
3

>  <source_scenario>  (246) 
1 1 2 0 0 0 0 2 1 0 0 0 1 1 3

>  <source_rank_in_scored_call>  (246) 
0

>  <source_current_task>  (246) 
close_aromatic_ring

>  <scenario>  (246) 
1 1 2 0 0 0 0 2 1 0 0 0 1 1

>  <current_task>  (246) 
no_task

$$$$

     RDKit          3D

 18 20  0  0  0  0  0  0  0  0999 V2000
  -27.9910   -7.5780  -31.7110 C   0  0  0  0  0  0  0  0  0  0  0  0
  -27.7150   -6.6400  -32.6230 N   0  0  0  0  0  0  0  0  0  0  0  0
  -28.0500   -8.9210  -31.7840 N   0  0  0  0  0  0  0  0  0  0  0  0
  -27.7110   -5.3090  -32.3290 C   0  0  0  0  0  0  0  0  0  0  0  0
  -27.9990   -4.8960  -31.0450 C   0  0  0  0  0  0  0  0  0  0  0  0
  -28.2880   -5.8690  -30.0870 C   0  0  0  0  0  0  0  0  0  0  0  0
  -28.2870   -7.2200  -30.4110 C   0  0  0  0  0  0  0  0  0  0  0  0
  -28.3770   -9.4260  -30.5580 C   0  0  0  0  0  0  0  0  0  0  0  0
  -28.5280   -8.3630  -29.6810 C   0  0  0  0  0  0  0  0  0  0  0  0
  -28.8570   -8.4340  -28.3490 N   0  0  0  0  0  0  0  0  0  0  0  0
  -27.9050   -8.7100  -27.4700 C   0  0  0  0  0  0  0  0  0  0  0  0
  -26.6740   -8.7980  -27.5710 O   0  0  0  0  0  0  0  0  0  0  0  0
  -28.3215   -8.9888  -25.9476 C   0  0  0  0  0  0  0  0  0  0  0  0
  -27.3898   -8.8594  -24.9398 C   0  0  0  0  0  0  0  0  0  0  0  0
  -27.8294   -9.0692  -23.6328 C   0  0  0  0  0  0  0  0  0  0  0  0
  -29.1170   -9.3866  -23.3651 N   0  0  0  0  0  0  0  0  0  0  0  0
  -29.6291   -9.3124  -25.6607 C   0  0  0  0  0  0  0  0  0  0  0  0
  -30.0272   -9.5125  -24.3560 C   0  0  0  0  0  0  0  0  0  0  0  0
  1  2  2  0
  1  3  1  0
  1  7  1  0
  2  4  1  0
  3  8  1  0
  4  5  2  0
  5  6  1  0
  6  7  2  0
  7  9  1  0
  8  9  2  0
  9 10  1  0
 10 11  1  0
 11 12  2  0
 11 13  1  0
 13 14  2  0
 14 15  1  0
 15 16  2  0
 13 17  1  0
 16 18  1  0
 17 18  2  0
M  END
>  <name>  (247) 
Car Nac Nd0 Car Car Car Car Car Car Nd0 Cs2 .=O Car Car Car Nac Car Car

>  <indices>  (247) 
[0, 1, 2]

>  <tasks>  (247) 
probe_placing close_aromatic_ring close_aromatic_ring close_aromatic_ring close_aromatic_ring ring_built build_to_Nd0 close_aromatic_ring no_task build_to_Nd0 build_DB_to_Cs2 build_SB_to_Cs2 close_aromatic_ring close_aromatic_ring close_aromatic_ring close_aromatic_ring

>  <prot_clashes>  (247) 
0

>  <NBS phar>  (247) 
0.4

>  <NBS_non-phar>  (247) 
0.6096135245429145

>  <NBS>  (247) 
1.0096135245429145

>  <source_stage>  (247) 
scored

>  <source_iter>  (247) 
15

>  <source_parent_mol>  (247) 
3

>  <source_scenario>  (247) 
1 1 2 0 0 0 0 2 1 0 0 0 1 1 3

>  <source_rank_in_scored_call>  (247) 
1

>  <source_current_task>  (247) 
close_aromatic_ring

>  <scenario>  (247) 
1 1 2 0 0 0 0 2 1 0 0 0 1 1

>  <current_task>  (247) 
no_task

$$$$

     RDKit          3D

 18 20  0  0  0  0  0  0  0  0999 V2000
  -27.9910   -7.5780  -31.7110 C   0  0  0  0  0  0  0  0  0  0  0  0
  -27.7150   -6.6400  -32.6230 N   0  0  0  0  0  0  0  0  0  0  0  0
  -28.0500   -8.9210  -31.7840 N   0  0  0  0  0  0  0  0  0  0  0  0
  -27.7110   -5.3090  -32.3290 C   0  0  0  0  0  0  0  0  0  0  0  0
  -27.9990   -4.8960  -31.0450 C   0  0  0  0  0  0  0  0  0  0  0  0
  -28.2880   -5.8690  -30.0870 C   0  0  0  0  0  0  0  0  0  0  0  0
  -28.2870   -7.2200  -30.4110 C   0  0  0  0  0  0  0  0  0  0  0  0
  -28.3770   -9.4260  -30.5580 C   0  0  0  0  0  0  0  0  0  0  0  0
  -28.5280   -8.3630  -29.6810 C   0  0  0  0  0  0  0  0  0  0  0  0
  -28.8570   -8.4340  -28.3490 N   0  0  0  0  0  0  0  0  0  0  0  0
  -27.9050   -8.7100  -27.4700 C   0  0  0  0  0  0  0  0  0  0  0  0
  -26.6740   -8.7980  -27.5710 O   0  0  0  0  0  0  0  0  0  0  0  0
  -28.3392   -8.9705  -25.9803 C   0  0  0  0  0  0  0  0  0  0  0  0
  -27.4834   -8.8836  -24.8809 C   0  0  0  0  0  0  0  0  0  0  0  0
  -29.6379   -9.3504  -25.6921 C   0  0  0  0  0  0  0  0  0  0  0  0
  -30.0780   -9.6283  -24.4190 C   0  0  0  0  0  0  0  0  0  0  0  0
  -29.1995   -9.5246  -23.4056 N   0  0  0  0  0  0  0  0  0  0  0  0
  -27.9231   -9.1625  -23.5987 C   0  0  0  0  0  0  0  0  0  0  0  0
  1  2  2  0
  1  3  1  0
  1  7  1  0
  2  4  1  0
  3  8  1  0
  4  5  2  0
  5  6  1  0
  6  7  2  0
  7  9  1  0
  8  9  2  0
  9 10  1  0
 10 11  1  0
 11 12  2  0
 11 13  1  0
 13 14  2  0
 13 15  1  0
 15 16  2  0
 16 17  1  0
 14 18  1  0
 17 18  2  0
M  END
>  <name>  (248) 
Car Nac Nd0 Car Car Car Car Car Car Nd0 Cs2 .=O Car Car Car Car Nac Car

>  <indices>  (248) 
[0, 1, 2]

>  <tasks>  (248) 
probe_placing close_aromatic_ring close_aromatic_ring close_aromatic_ring close_aromatic_ring ring_built build_to_Nd0 close_aromatic_ring no_task build_to_Nd0 build_DB_to_Cs2 build_SB_to_Cs2 close_aromatic_ring close_aromatic_ring close_aromatic_ring close_aromatic_ring

>  <prot_clashes>  (248) 
0

>  <NBS phar>  (248) 
0.4

>  <NBS_non-phar>  (248) 
0.5988345146179199

>  <NBS>  (248) 
0.9988345146179199

>  <source_stage>  (248) 
scored

>  <source_iter>  (248) 
15

>  <source_parent_mol>  (248) 
3

>  <source_scenario>  (248) 
1 1 2 0 0 0 0 2 1 0 0 0 4 0 3

>  <source_rank_in_scored_call>  (248) 
0

>  <source_current_task>  (248) 
close_aromatic_ring

>  <scenario>  (248) 
1 1 2 0 0 0 0 2 1 0 0 0 4 0

>  <current_task>  (248) 
no_task

$$$$

     RDKit          3D

 18 20  0  0  0  0  0  0  0  0999 V2000
  -28.0460   -7.7260  -31.7740 C   0  0  0  0  0  0  0  0  0  0  0  0
  -27.8720   -6.8220  -32.7440 N   0  0  0  0  0  0  0  0  0  0  0  0
  -28.0680   -9.0720  -31.7850 N   0  0  0  0  0  0  0  0  0  0  0  0
  -27.8860   -5.4800  -32.5080 C   0  0  0  0  0  0  0  0  0  0  0  0
  -28.0850   -5.0180  -31.2240 C   0  0  0  0  0  0  0  0  0  0  0  0
  -28.2670   -5.9550  -30.2060 C   0  0  0  0  0  0  0  0  0  0  0  0
  -28.2500   -7.3180  -30.4710 C   0  0  0  0  0  0  0  0  0  0  0  0
  -28.2820   -9.5300  -30.5170 C   0  0  0  0  0  0  0  0  0  0  0  0
  -28.3970   -8.4340  -29.6760 C   0  0  0  0  0  0  0  0  0  0  0  0
  -28.6170   -8.4540  -28.3200 N   0  0  0  0  0  0  0  0  0  0  0  0
  -27.5910   -8.6640  -27.5090 C   0  0  0  0  0  0  0  0  0  0  0  0
  -26.3700   -8.7220  -27.7050 O   0  0  0  0  0  0  0  0  0  0  0  0
  -27.8980   -8.8690  -25.9800 C   0  0  0  0  0  0  0  0  0  0  0  0
  -26.9610   -8.7100  -24.9580 C   0  0  0  0  0  0  0  0  0  0  0  0
  -29.1580   -9.2720  -25.5730 C   0  0  0  0  0  0  0  0  0  0  0  0
  -29.4870   -9.5050  -24.2580 C   0  0  0  0  0  0  0  0  0  0  0  0
  -28.5360   -9.3320  -23.3240 N   0  0  0  0  0  0  0  0  0  0  0  0
  -27.2900   -8.9430  -23.6340 C   0  0  0  0  0  0  0  0  0  0  0  0
  1  2  2  0
  1  3  1  0
  1  7  1  0
  2  4  1  0
  3  8  1  0
  4  5  2  0
  5  6  1  0
  6  7  2  0
  7  9  1  0
  8  9  2  0
  9 10  1  0
 10 11  1  0
 11 12  2  0
 11 13  1  0
 13 15  1  0
 13 14  2  0
 14 18  1  0
 15 16  2  0
 16 17  1  0
 17 18  2  0
M  END
>  <name>  (249) 
Car Nac Nd0 Car Car Car Car Car Car Nd0 Cs2 .=O Car Car Car Car Nac Car

>  <indices>  (249) 
[0, 1, 2]

>  <tasks>  (249) 
probe_placing close_aromatic_ring close_aromatic_ring close_aromatic_ring close_aromatic_ring ring_built build_to_Nd0 close_aromatic_ring no_task build_to_Nd0 build_DB_to_Cs2 build_SB_to_Cs2 close_aromatic_ring close_aromatic_ring close_aromatic_ring close_aromatic_ring

>  <prot_clashes>  (249) 
2

>  <NBS phar>  (249) 
0.34

>  <NBS_non-phar>  (249) 
0.6585704485575358

>  <NBS>  (249) 
0.9985704485575357

>  <source_stage>  (249) 
scored

>  <source_iter>  (249) 
15

>  <source_parent_mol>  (249) 
3

>  <source_scenario>  (249) 
1 1 2 0 0 0 0 2 1 0 0 0 4 0 3

>  <source_rank_in_scored_call>  (249) 
1

>  <source_current_task>  (249) 
close_aromatic_ring

>  <scenario>  (249) 
1 1 2 0 0 0 0 2 1 0 0 0 4 0

>  <current_task>  (249) 
no_task

$$$$

     RDKit          3D

 18 20  0  0  0  0  0  0  0  0999 V2000
  -28.0930   -7.7620  -31.7890 C   0  0  0  0  0  0  0  0  0  0  0  0
  -27.9540   -6.8660  -32.7720 N   0  0  0  0  0  0  0  0  0  0  0  0
  -28.0560   -9.1080  -31.7810 N   0  0  0  0  0  0  0  0  0  0  0  0
  -28.0280   -5.5220  -32.5560 C   0  0  0  0  0  0  0  0  0  0  0  0
  -28.2530   -5.0510  -31.2800 C   0  0  0  0  0  0  0  0  0  0  0  0
  -28.3980   -5.9790  -30.2480 C   0  0  0  0  0  0  0  0  0  0  0  0
  -28.3190   -7.3450  -30.4930 C   0  0  0  0  0  0  0  0  0  0  0  0
  -28.2550   -9.5560  -30.5060 C   0  0  0  0  0  0  0  0  0  0  0  0
  -28.4210   -8.4540  -29.6830 C   0  0  0  0  0  0  0  0  0  0  0  0
  -28.6460   -8.4640  -28.3270 N   0  0  0  0  0  0  0  0  0  0  0  0
  -27.6150   -8.6160  -27.5100 C   0  0  0  0  0  0  0  0  0  0  0  0
  -26.3910   -8.6240  -27.7000 O   0  0  0  0  0  0  0  0  0  0  0  0
  -27.9420   -8.8300  -25.9230 C   0  0  0  0  0  0  0  0  0  0  0  0
  -26.9380   -8.8440  -24.9480 C   0  0  0  0  0  0  0  0  0  0  0  0
  -29.2440   -9.1640  -25.6000 C   0  0  0  0  0  0  0  0  0  0  0  0
  -29.5470   -9.5160  -24.2890 C   0  0  0  0  0  0  0  0  0  0  0  0
  -28.5770   -9.5250  -23.3700 N   0  0  0  0  0  0  0  0  0  0  0  0
  -27.3150   -9.2030  -23.6690 C   0  0  0  0  0  0  0  0  0  0  0  0
  1  2  2  0
  1  3  1  0
  1  7  1  0
  2  4  1  0
  3  8  1  0
  4  5  2  0
  5  6  1  0
  6  7  2  0
  7  9  1  0
  8  9  2  0
  9 10  1  0
 10 11  1  0
 11 12  2  0
 11 13  1  0
 13 15  1  0
 13 14  2  0
 14 18  1  0
 15 16  2  0
 16 17  1  0
 17 18  2  0
M  END
>  <name>  (250) 
Car Nac Nd0 Car Car Car Car Car Car Nd0 Cs2 .=O Car Car Car Car Nac Car

>  <indices>  (250) 
[0, 1, 2]

>  <tasks>  (250) 
probe_placing close_aromatic_ring close_aromatic_ring close_aromatic_ring close_aromatic_ring ring_built build_to_Nd0 close_aromatic_ring no_task build_to_Nd0 build_DB_to_Cs2 build_SB_to_Cs2 close_aromatic_ring close_aromatic_ring close_aromatic_ring close_aromatic_ring

>  <prot_clashes>  (250) 
2

>  <NBS phar>  (250) 
0.36000000000000004

>  <NBS_non-phar>  (250) 
0.6229690445793999

>  <NBS>  (250) 
0.9829690445793999

>  <source_stage>  (250) 
scored

>  <source_iter>  (250) 
15

>  <source_parent_mol>  (250) 
3

>  <source_scenario>  (250) 
1 1 2 0 0 0 0 2 1 0 0 0 4 0 3

>  <source_rank_in_scored_call>  (250) 
2

>  <source_current_task>  (250) 
close_aromatic_ring

>  <scenario>  (250) 
1 1 2 0 0 0 0 2 1 0 0 0 4 0

>  <current_task>  (250) 
no_task

$$$$

     RDKit          3D

 18 20  0  0  0  0  0  0  0  0999 V2000
  -27.9910   -7.5780  -31.7110 C   0  0  0  0  0  0  0  0  0  0  0  0
  -27.7150   -6.6400  -32.6230 N   0  0  0  0  0  0  0  0  0  0  0  0
  -28.0500   -8.9210  -31.7840 N   0  0  0  0  0  0  0  0  0  0  0  0
  -27.7110   -5.3090  -32.3290 C   0  0  0  0  0  0  0  0  0  0  0  0
  -27.9990   -4.8960  -31.0450 C   0  0  0  0  0  0  0  0  0  0  0  0
  -28.2880   -5.8690  -30.0870 C   0  0  0  0  0  0  0  0  0  0  0  0
  -28.2870   -7.2200  -30.4110 C   0  0  0  0  0  0  0  0  0  0  0  0
  -28.3770   -9.4260  -30.5580 C   0  0  0  0  0  0  0  0  0  0  0  0
  -28.5280   -8.3630  -29.6810 C   0  0  0  0  0  0  0  0  0  0  0  0
  -28.8570   -8.4340  -28.3490 N   0  0  0  0  0  0  0  0  0  0  0  0
  -27.9050   -8.7100  -27.4700 C   0  0  0  0  0  0  0  0  0  0  0  0
  -26.6740   -8.7980  -27.5710 O   0  0  0  0  0  0  0  0  0  0  0  0
  -28.3671   -8.9893  -25.9276 C   0  0  0  0  0  0  0  0  0  0  0  0
  -27.4448   -9.1341  -24.8848 C   0  0  0  0  0  0  0  0  0  0  0  0
  -29.7101   -9.2433  -25.7221 C   0  0  0  0  0  0  0  0  0  0  0  0
  -30.1372   -9.6464  -24.4610 C   0  0  0  0  0  0  0  0  0  0  0  0
  -29.2441   -9.7798  -23.4762 N   0  0  0  0  0  0  0  0  0  0  0  0
  -27.9427   -9.5373  -23.6620 C   0  0  0  0  0  0  0  0  0  0  0  0
  1  2  2  0
  1  3  1  0
  1  7  1  0
  2  4  1  0
  3  8  1  0
  4  5  2  0
  5  6  1  0
  6  7  2  0
  7  9  1  0
  8  9  2  0
  9 10  1  0
 10 11  1  0
 11 12  2  0
 11 13  1  0
 13 14  2  0
 13 15  1  0
 15 16  2  0
 16 17  1  0
 17 18  2  0
 14 18  1  0
M  END
>  <name>  (251) 
Car Nac Nd0 Car Car Car Car Car Car Nd0 Cs2 .=O Car Car Car Car Nac Car

>  <indices>  (251) 
[0, 1, 2]

>  <tasks>  (251) 
probe_placing close_aromatic_ring close_aromatic_ring close_aromatic_ring close_aromatic_ring ring_built build_to_Nd0 close_aromatic_ring no_task build_to_Nd0 build_DB_to_Cs2 build_SB_to_Cs2 close_aromatic_ring close_aromatic_ring close_aromatic_ring close_aromatic_ring

>  <prot_clashes>  (251) 
1

>  <NBS phar>  (251) 
0.4

>  <NBS_non-phar>  (251) 
0.5542583465576172

>  <NBS>  (251) 
0.9542583465576172

>  <source_stage>  (251) 
scored

>  <source_iter>  (251) 
15

>  <source_parent_mol>  (251) 
3

>  <source_scenario>  (251) 
1 1 2 0 0 0 0 2 1 0 0 0 4 0 3

>  <source_rank_in_scored_call>  (251) 
3

>  <source_current_task>  (251) 
close_aromatic_ring

>  <scenario>  (251) 
1 1 2 0 0 0 0 2 1 0 0 0 4 0

>  <current_task>  (251) 
no_task

$$$$

     RDKit          3D

 16 18  0  0  0  0  0  0  0  0999 V2000
  -27.8779   -7.5815  -31.1793 C   0  0  0  0  0  0  0  0  0  0  0  0
  -27.5855   -6.6352  -32.0772 N   0  0  0  0  0  0  0  0  0  0  0  0
  -27.7543   -8.9219  -31.2047 N   0  0  0  0  0  0  0  0  0  0  0  0
  -27.7958   -5.3090  -31.8400 C   0  0  0  0  0  0  0  0  0  0  0  0
  -28.3299   -4.9112  -30.6330 C   0  0  0  0  0  0  0  0  0  0  0  0
  -28.6380   -5.8933  -29.6902 C   0  0  0  0  0  0  0  0  0  0  0  0
  -28.4146   -7.2391  -29.9548 C   0  0  0  0  0  0  0  0  0  0  0  0
  -28.2005   -9.4396  -30.0231 C   0  0  0  0  0  0  0  0  0  0  0  0
  -28.6205   -8.3878  -29.2244 C   0  0  0  0  0  0  0  0  0  0  0  0
  -28.6846   -3.5605  -30.1124 C   0  0  0  0  0  0  0  0  0  0  0  0
  -29.6377   -2.8224  -30.5735 N   0  0  0  0  0  0  0  0  0  0  0  0
  -27.8190   -3.1562  -29.0099 C   0  0  0  0  0  0  0  0  0  0  0  0
  -28.0425   -1.9652  -28.4705 C   0  0  0  0  0  0  0  0  0  0  0  0
  -29.9602   -1.5078  -30.0522 C   0  0  0  0  0  0  0  0  0  0  0  0
  -29.0885   -1.1380  -28.9657 N   0  0  0  0  0  0  0  0  0  0  0  0
  -30.8764   -0.7881  -30.4892 O   0  0  0  0  0  0  0  0  0  0  0  0
  1  2  2  0
  1  3  1  0
  2  4  1  0
  4  5  2  0
  5  6  1  0
  6  7  2  0
  1  7  1  0
  3  8  1  0
  8  9  2  0
  7  9  1  0
  5 10  1  0
 10 11  2  0
 10 12  1  0
 12 13  2  0
 11 14  1  0
 13 15  1  0
 14 15  1  0
 14 16  2  0
M  END
>  <name>  (252) 
Car Nac Nd0 Car Car Car Car Car Car Car Nac Car Car Car Nd0 .=O

>  <indices>  (252) 
[0, 1, 2]

>  <tasks>  (252) 
probe_placing close_aromatic_ring close_aromatic_ring close_aromatic_ring close_aromatic_ring ring_built build_to_Nd0 close_aromatic_ring no_task close_aromatic_ring close_aromatic_ring close_aromatic_ring close_aromatic_ring close_aromatic_ring

>  <prot_clashes>  (252) 
3

>  <NBS phar>  (252) 
0.34

>  <NBS_non-phar>  (252) 
0.7199612259864807

>  <NBS>  (252) 
1.0599612259864808

>  <source_stage>  (252) 
scored

>  <source_iter>  (252) 
13

>  <source_parent_mol>  (252) 
1

>  <source_scenario>  (252) 
1 1 2 0 0 0 0 4 0 0 0 0 1

>  <source_rank_in_scored_call>  (252) 
0

>  <source_current_task>  (252) 
fix_Car

>  <scenario>  (252) 
1 1 2 0 0 0 0 4 0 0 0 0

>  <current_task>  (252) 
no_task

$$$$

     RDKit          3D

 16 18  0  0  0  0  0  0  0  0999 V2000
  -27.9780   -7.1980  -32.0300 C   0  0  0  0  0  0  0  0  0  0  0  0
  -27.3690   -6.1120  -32.5180 N   0  0  0  0  0  0  0  0  0  0  0  0
  -28.0690   -8.4630  -32.4820 N   0  0  0  0  0  0  0  0  0  0  0  0
  -27.4040   -4.9040  -31.8860 C   0  0  0  0  0  0  0  0  0  0  0  0
  -28.0890   -4.7800  -30.6960 C   0  0  0  0  0  0  0  0  0  0  0  0
  -28.7270   -5.9090  -30.1800 C   0  0  0  0  0  0  0  0  0  0  0  0
  -28.6780   -7.1300  -30.8430 C   0  0  0  0  0  0  0  0  0  0  0  0
  -28.8130   -9.2020  -31.6060 C   0  0  0  0  0  0  0  0  0  0  0  0
  -29.2030   -8.3720  -30.5670 C   0  0  0  0  0  0  0  0  0  0  0  0
  -28.3150   -3.6050  -29.8090 C   0  0  0  0  0  0  0  0  0  0  0  0
  -29.0300   -2.5750  -30.1200 N   0  0  0  0  0  0  0  0  0  0  0  0
  -27.6240   -3.7430  -28.5320 C   0  0  0  0  0  0  0  0  0  0  0  0
  -27.7520   -2.7490  -27.6640 C   0  0  0  0  0  0  0  0  0  0  0  0
  -29.2290   -1.4400  -29.2410 C   0  0  0  0  0  0  0  0  0  0  0  0
  -28.5350   -1.6080  -27.9900 N   0  0  0  0  0  0  0  0  0  0  0  0
  -29.9160   -0.4430  -29.5310 O   0  0  0  0  0  0  0  0  0  0  0  0
  1  2  2  0
  1  3  1  0
  1  7  1  0
  2  4  1  0
  3  8  1  0
  4  5  2  0
  5  6  1  0
  5 10  1  0
  6  7  2  0
  7  9  1  0
  8  9  2  0
 10 11  2  0
 10 12  1  0
 11 14  1  0
 12 13  2  0
 13 15  1  0
 14 16  2  0
 14 15  1  0
M  END
>  <name>  (253) 
Car Nac Nd0 Car Car Car Car Car Car Car Nac Car Car Car Nd0 .=O

>  <indices>  (253) 
[0, 1, 2]

>  <tasks>  (253) 
probe_placing close_aromatic_ring close_aromatic_ring close_aromatic_ring close_aromatic_ring ring_built build_to_Nd0 close_aromatic_ring no_task close_aromatic_ring close_aromatic_ring close_aromatic_ring close_aromatic_ring close_aromatic_ring

>  <prot_clashes>  (253) 
3

>  <NBS phar>  (253) 
0.15999999999999998

>  <NBS_non-phar>  (253) 
0.5643668174743652

>  <NBS>  (253) 
0.7243668174743652

>  <source_stage>  (253) 
scored

>  <source_iter>  (253) 
13

>  <source_parent_mol>  (253) 
1

>  <source_scenario>  (253) 
1 1 2 0 0 0 0 4 0 0 0 0 1

>  <source_rank_in_scored_call>  (253) 
5

>  <source_current_task>  (253) 
fix_Car

>  <scenario>  (253) 
1 1 2 0 0 0 0 4 0 0 0 0

>  <current_task>  (253) 
no_task

$$$$

     RDKit          3D

 15 17  0  0  0  0  0  0  0  0999 V2000
  -27.8779   -7.5815  -31.1793 C   0  0  0  0  0  0  0  0  0  0  0  0
  -27.5855   -6.6352  -32.0772 N   0  0  0  0  0  0  0  0  0  0  0  0
  -27.7543   -8.9219  -31.2047 N   0  0  0  0  0  0  0  0  0  0  0  0
  -27.7958   -5.3090  -31.8400 C   0  0  0  0  0  0  0  0  0  0  0  0
  -28.3299   -4.9112  -30.6330 C   0  0  0  0  0  0  0  0  0  0  0  0
  -28.6380   -5.8933  -29.6902 C   0  0  0  0  0  0  0  0  0  0  0  0
  -28.4146   -7.2391  -29.9548 C   0  0  0  0  0  0  0  0  0  0  0  0
  -28.2005   -9.4396  -30.0231 C   0  0  0  0  0  0  0  0  0  0  0  0
  -28.6205   -8.3878  -29.2244 C   0  0  0  0  0  0  0  0  0  0  0  0
  -28.6676   -3.5650  -30.1072 C   0  0  0  0  0  0  0  0  0  0  0  0
  -29.6670   -2.7936  -30.5835 N   0  0  0  0  0  0  0  0  0  0  0  0
  -27.8753   -3.1242  -29.0438 C   0  0  0  0  0  0  0  0  0  0  0  0
  -28.1012   -1.8964  -28.4649 C   0  0  0  0  0  0  0  0  0  0  0  0
  -29.1321   -1.1342  -28.9781 C   0  0  0  0  0  0  0  0  0  0  0  0
  -29.9157   -1.5730  -30.0317 C   0  0  0  0  0  0  0  0  0  0  0  0
  1  2  2  0
  1  3  1  0
  2  4  1  0
  4  5  2  0
  5  6  1  0
  6  7  2  0
  1  7  1  0
  3  8  1  0
  8  9  2  0
  7  9  1  0
  5 10  1  0
 10 11  2  0
 10 12  1  0
 12 13  2  0
 13 14  1  0
 11 15  1  0
 14 15  2  0
M  END
>  <name>  (254) 
Car Nac Nd0 Car Car Car Car Car Car Car Nac Car Car Car Car

>  <indices>  (254) 
[0, 1, 2]

>  <tasks>  (254) 
probe_placing close_aromatic_ring close_aromatic_ring close_aromatic_ring close_aromatic_ring ring_built build_to_Nd0 close_aromatic_ring no_task close_aromatic_ring close_aromatic_ring close_aromatic_ring close_aromatic_ring

>  <prot_clashes>  (254) 
3

>  <NBS phar>  (254) 
0.34

>  <NBS_non-phar>  (254) 
0.7444756189982097

>  <NBS>  (254) 
1.0844756189982097

>  <source_stage>  (254) 
scored

>  <source_iter>  (254) 
12

>  <source_parent_mol>  (254) 
1

>  <source_scenario>  (254) 
1 1 2 0 0 0 0 4 0 0 0 1

>  <source_rank_in_scored_call>  (254) 
0

>  <source_current_task>  (254) 
close_aromatic_ring

>  <scenario>  (254) 
1 1 2 0 0 0 0 4 0 0 0

>  <current_task>  (254) 
no_task

$$$$

     RDKit          3D

 15 17  0  0  0  0  0  0  0  0999 V2000
  -27.8779   -7.5815  -31.1793 C   0  0  0  0  0  0  0  0  0  0  0  0
  -27.5855   -6.6352  -32.0772 N   0  0  0  0  0  0  0  0  0  0  0  0
  -27.7543   -8.9219  -31.2047 N   0  0  0  0  0  0  0  0  0  0  0  0
  -27.7958   -5.3090  -31.8400 C   0  0  0  0  0  0  0  0  0  0  0  0
  -28.3299   -4.9112  -30.6330 C   0  0  0  0  0  0  0  0  0  0  0  0
  -28.6380   -5.8933  -29.6902 C   0  0  0  0  0  0  0  0  0  0  0  0
  -28.4146   -7.2391  -29.9548 C   0  0  0  0  0  0  0  0  0  0  0  0
  -28.2005   -9.4396  -30.0231 C   0  0  0  0  0  0  0  0  0  0  0  0
  -28.6205   -8.3878  -29.2244 C   0  0  0  0  0  0  0  0  0  0  0  0
  -28.6308   -3.6201  -30.1033 C   0  0  0  0  0  0  0  0  0  0  0  0
  -29.7854   -2.9831  -30.4378 N   0  0  0  0  0  0  0  0  0  0  0  0
  -27.7872   -3.0834  -29.1247 C   0  0  0  0  0  0  0  0  0  0  0  0
  -28.1389   -1.8975  -28.4998 C   0  0  0  0  0  0  0  0  0  0  0  0
  -29.3168   -1.2765  -28.8623 C   0  0  0  0  0  0  0  0  0  0  0  0
  -30.1327   -1.8239  -29.8296 C   0  0  0  0  0  0  0  0  0  0  0  0
  1  2  2  0
  1  3  1  0
  2  4  1  0
  4  5  2  0
  5  6  1  0
  6  7  2  0
  1  7  1  0
  3  8  1  0
  8  9  2  0
  7  9  1  0
  5 10  1  0
 10 11  2  0
 10 12  1  0
 12 13  2  0
 13 14  1  0
 11 15  1  0
 14 15  2  0
M  END
>  <name>  (255) 
Car Nac Nd0 Car Car Car Car Car Car Car Nac Car Car Car Car

>  <indices>  (255) 
[0, 1, 2]

>  <tasks>  (255) 
probe_placing close_aromatic_ring close_aromatic_ring close_aromatic_ring close_aromatic_ring ring_built build_to_Nd0 close_aromatic_ring no_task close_aromatic_ring close_aromatic_ring close_aromatic_ring close_aromatic_ring

>  <prot_clashes>  (255) 
7

>  <NBS phar>  (255) 
0.34

>  <NBS_non-phar>  (255) 
0.6976675669352214

>  <NBS>  (255) 
1.0376675669352213

>  <source_stage>  (255) 
scored

>  <source_iter>  (255) 
12

>  <source_parent_mol>  (255) 
1

>  <source_scenario>  (255) 
1 1 2 0 0 0 0 4 0 0 0 1

>  <source_rank_in_scored_call>  (255) 
1

>  <source_current_task>  (255) 
close_aromatic_ring

>  <scenario>  (255) 
1 1 2 0 0 0 0 4 0 0 0

>  <current_task>  (255) 
no_task

$$$$

     RDKit          3D

 15 17  0  0  0  0  0  0  0  0999 V2000
  -28.0310   -7.1870  -32.0980 C   0  0  0  0  0  0  0  0  0  0  0  0
  -27.4720   -6.0840  -32.6070 N   0  0  0  0  0  0  0  0  0  0  0  0
  -28.1680   -8.4360  -32.5810 N   0  0  0  0  0  0  0  0  0  0  0  0
  -27.4430   -4.8990  -31.9340 C   0  0  0  0  0  0  0  0  0  0  0  0
  -28.0060   -4.8170  -30.6780 C   0  0  0  0  0  0  0  0  0  0  0  0
  -28.5910   -5.9640  -30.1390 C   0  0  0  0  0  0  0  0  0  0  0  0
  -28.6090   -7.1610  -30.8460 C   0  0  0  0  0  0  0  0  0  0  0  0
  -28.8220   -9.2060  -31.6610 C   0  0  0  0  0  0  0  0  0  0  0  0
  -29.1050   -8.4140  -30.5610 C   0  0  0  0  0  0  0  0  0  0  0  0
  -28.1010   -3.7410  -29.7440 C   0  0  0  0  0  0  0  0  0  0  0  0
  -29.0700   -2.7950  -29.8700 N   0  0  0  0  0  0  0  0  0  0  0  0
  -27.2690   -3.7540  -28.6190 C   0  0  0  0  0  0  0  0  0  0  0  0
  -27.4440   -2.7950  -27.6340 C   0  0  0  0  0  0  0  0  0  0  0  0
  -28.4370   -1.8500  -27.7910 C   0  0  0  0  0  0  0  0  0  0  0  0
  -29.2440   -1.8560  -28.9100 C   0  0  0  0  0  0  0  0  0  0  0  0
  1  2  2  0
  1  3  1  0
  1  7  1  0
  2  4  1  0
  3  8  1  0
  4  5  2  0
  5  6  1  0
  5 10  1  0
  6  7  2  0
  7  9  1  0
  8  9  2  0
 10 11  2  0
 10 12  1  0
 11 15  1  0
 12 13  2  0
 13 14  1  0
 14 15  2  0
M  END
>  <name>  (256) 
Car Nac Nd0 Car Car Car Car Car Car Car Nac Car Car Car Car

>  <indices>  (256) 
[0, 1, 2]

>  <tasks>  (256) 
probe_placing close_aromatic_ring close_aromatic_ring close_aromatic_ring close_aromatic_ring ring_built build_to_Nd0 close_aromatic_ring no_task close_aromatic_ring close_aromatic_ring close_aromatic_ring close_aromatic_ring

>  <prot_clashes>  (256) 
4

>  <NBS phar>  (256) 
0.19999999999999998

>  <NBS_non-phar>  (256) 
0.691262690226237

>  <NBS>  (256) 
0.8912626902262369

>  <source_stage>  (256) 
scored

>  <source_iter>  (256) 
12

>  <source_parent_mol>  (256) 
1

>  <source_scenario>  (256) 
1 1 2 0 0 0 0 4 0 0 0 1

>  <source_rank_in_scored_call>  (256) 
2

>  <source_current_task>  (256) 
close_aromatic_ring

>  <scenario>  (256) 
1 1 2 0 0 0 0 4 0 0 0

>  <current_task>  (256) 
no_task

$$$$

     RDKit          3D

 15 17  0  0  0  0  0  0  0  0999 V2000
  -28.0040   -7.1050  -32.0220 C   0  0  0  0  0  0  0  0  0  0  0  0
  -27.4400   -5.9970  -32.5150 N   0  0  0  0  0  0  0  0  0  0  0  0
  -28.0990   -8.3600  -32.4980 N   0  0  0  0  0  0  0  0  0  0  0  0
  -27.4620   -4.8050  -31.8530 C   0  0  0  0  0  0  0  0  0  0  0  0
  -28.0840   -4.7220  -30.6250 C   0  0  0  0  0  0  0  0  0  0  0  0
  -28.6750   -5.8730  -30.1030 C   0  0  0  0  0  0  0  0  0  0  0  0
  -28.6400   -7.0770  -30.7980 C   0  0  0  0  0  0  0  0  0  0  0  0
  -28.7820   -9.1330  -31.6030 C   0  0  0  0  0  0  0  0  0  0  0  0
  -29.1290   -8.3350  -30.5240 C   0  0  0  0  0  0  0  0  0  0  0  0
  -28.2660   -3.5800  -29.6950 C   0  0  0  0  0  0  0  0  0  0  0  0
  -29.0510   -2.5120  -29.9490 N   0  0  0  0  0  0  0  0  0  0  0  0
  -27.5650   -3.6750  -28.4890 C   0  0  0  0  0  0  0  0  0  0  0  0
  -27.6640   -2.6820  -27.5420 C   0  0  0  0  0  0  0  0  0  0  0  0
  -28.4770   -1.6050  -27.8350 C   0  0  0  0  0  0  0  0  0  0  0  0
  -29.1700   -1.5130  -29.0310 C   0  0  0  0  0  0  0  0  0  0  0  0
  1  2  2  0
  1  3  1  0
  1  7  1  0
  2  4  1  0
  3  8  1  0
  4  5  2  0
  5  6  1  0
  5 10  1  0
  6  7  2  0
  7  9  1  0
  8  9  2  0
 10 11  2  0
 10 12  1  0
 11 15  1  0
 12 13  2  0
 13 14  1  0
 14 15  2  0
M  END
>  <name>  (257) 
Car Nac Nd0 Car Car Car Car Car Car Car Nac Car Car Car Car

>  <indices>  (257) 
[0, 1, 2]

>  <tasks>  (257) 
probe_placing close_aromatic_ring close_aromatic_ring close_aromatic_ring close_aromatic_ring ring_built build_to_Nd0 close_aromatic_ring no_task close_aromatic_ring close_aromatic_ring close_aromatic_ring close_aromatic_ring

>  <prot_clashes>  (257) 
3

>  <NBS phar>  (257) 
0.18

>  <NBS_non-phar>  (257) 
0.647581418355306

>  <NBS>  (257) 
0.8275814183553061

>  <source_stage>  (257) 
scored

>  <source_iter>  (257) 
12

>  <source_parent_mol>  (257) 
1

>  <source_scenario>  (257) 
1 1 2 0 0 0 0 4 0 0 0 1

>  <source_rank_in_scored_call>  (257) 
3

>  <source_current_task>  (257) 
close_aromatic_ring

>  <scenario>  (257) 
1 1 2 0 0 0 0 4 0 0 0

>  <current_task>  (257) 
no_task

$$$$

     RDKit          3D

 15 17  0  0  0  0  0  0  0  0999 V2000
  -28.0040   -6.9330  -32.0610 C   0  0  0  0  0  0  0  0  0  0  0  0
  -27.4280   -5.8030  -32.4890 N   0  0  0  0  0  0  0  0  0  0  0  0
  -28.1310   -8.1510  -32.6180 N   0  0  0  0  0  0  0  0  0  0  0  0
  -27.4140   -4.6590  -31.7480 C   0  0  0  0  0  0  0  0  0  0  0  0
  -28.0120   -4.6480  -30.5060 C   0  0  0  0  0  0  0  0  0  0  0  0
  -28.6160   -5.8210  -30.0510 C   0  0  0  0  0  0  0  0  0  0  0  0
  -28.6180   -6.9750  -30.8250 C   0  0  0  0  0  0  0  0  0  0  0  0
  -28.8130   -8.9690  -31.7650 C   0  0  0  0  0  0  0  0  0  0  0  0
  -29.1250   -8.2400  -30.6270 C   0  0  0  0  0  0  0  0  0  0  0  0
  -28.1200   -3.5150  -29.5320 C   0  0  0  0  0  0  0  0  0  0  0  0
  -27.3130   -3.3620  -28.4240 C   0  0  0  0  0  0  0  0  0  0  0  0
  -29.2260   -2.7200  -29.6150 N   0  0  0  0  0  0  0  0  0  0  0  0
  -27.5720   -2.4580  -27.4150 C   0  0  0  0  0  0  0  0  0  0  0  0
  -29.5100   -1.8160  -28.6330 C   0  0  0  0  0  0  0  0  0  0  0  0
  -28.6970   -1.6700  -27.5280 C   0  0  0  0  0  0  0  0  0  0  0  0
  1  3  1  0
  1  2  2  0
  1  7  1  0
  2  4  1  0
  3  8  1  0
  4  5  2  0
  5  6  1  0
  5 10  1  0
  6  7  2  0
  7  9  1  0
  8  9  2  0
 10 12  1  0
 10 11  2  0
 11 13  1  0
 12 14  2  0
 13 15  2  0
 14 15  1  0
M  END
>  <name>  (258) 
Car Nac Nd0 Car Car Car Car Car Car Car Car Nac Car Car Car

>  <indices>  (258) 
[0, 1, 2]

>  <tasks>  (258) 
probe_placing close_aromatic_ring close_aromatic_ring close_aromatic_ring close_aromatic_ring ring_built build_to_Nd0 close_aromatic_ring no_task close_aromatic_ring close_aromatic_ring close_aromatic_ring close_aromatic_ring

>  <prot_clashes>  (258) 
4

>  <NBS phar>  (258) 
0.21999999999999997

>  <NBS_non-phar>  (258) 
0.7152383168538411

>  <NBS>  (258) 
0.9352383168538411

>  <source_stage>  (258) 
scored

>  <source_iter>  (258) 
12

>  <source_parent_mol>  (258) 
4

>  <source_scenario>  (258) 
1 1 2 0 0 0 0 4 2 0 0 4

>  <source_rank_in_scored_call>  (258) 
0

>  <source_current_task>  (258) 
close_aromatic_ring

>  <scenario>  (258) 
1 1 2 0 0 0 0 4 2 0 0

>  <current_task>  (258) 
no_task

$$$$

     RDKit          3D

 15 17  0  0  0  0  0  0  0  0999 V2000
  -28.0160   -6.9280  -32.0580 C   0  0  0  0  0  0  0  0  0  0  0  0
  -27.4440   -5.7900  -32.4670 N   0  0  0  0  0  0  0  0  0  0  0  0
  -28.1250   -8.1420  -32.6280 N   0  0  0  0  0  0  0  0  0  0  0  0
  -27.4500   -4.6530  -31.7150 C   0  0  0  0  0  0  0  0  0  0  0  0
  -28.0670   -4.6580  -30.4830 C   0  0  0  0  0  0  0  0  0  0  0  0
  -28.6680   -5.8400  -30.0480 C   0  0  0  0  0  0  0  0  0  0  0  0
  -28.6480   -6.9870  -30.8320 C   0  0  0  0  0  0  0  0  0  0  0  0
  -28.8120   -8.9740  -31.7920 C   0  0  0  0  0  0  0  0  0  0  0  0
  -29.1480   -8.2580  -30.6530 C   0  0  0  0  0  0  0  0  0  0  0  0
  -28.2410   -3.6010  -29.4710 C   0  0  0  0  0  0  0  0  0  0  0  0
  -27.4150   -3.3810  -28.3860 C   0  0  0  0  0  0  0  0  0  0  0  0
  -29.3160   -2.7790  -29.6520 N   0  0  0  0  0  0  0  0  0  0  0  0
  -27.6790   -2.3390  -27.4960 C   0  0  0  0  0  0  0  0  0  0  0  0
  -29.5600   -1.7760  -28.7850 C   0  0  0  0  0  0  0  0  0  0  0  0
  -28.7680   -1.5150  -27.6870 C   0  0  0  0  0  0  0  0  0  0  0  0
  1  3  1  0
  1  2  2  0
  1  7  1  0
  2  4  1  0
  3  8  1  0
  4  5  2  0
  5  6  1  0
  5 10  1  0
  6  7  2  0
  7  9  1  0
  8  9  2  0
 10 12  1  0
 10 11  2  0
 11 13  1  0
 12 14  2  0
 13 15  2  0
 14 15  1  0
M  END
>  <name>  (259) 
Car Nac Nd0 Car Car Car Car Car Car Car Car Nac Car Car Car

>  <indices>  (259) 
[0, 1, 2]

>  <tasks>  (259) 
probe_placing close_aromatic_ring close_aromatic_ring close_aromatic_ring close_aromatic_ring ring_built build_to_Nd0 close_aromatic_ring no_task close_aromatic_ring close_aromatic_ring close_aromatic_ring close_aromatic_ring

>  <prot_clashes>  (259) 
4

>  <NBS phar>  (259) 
0.19999999999999998

>  <NBS_non-phar>  (259) 
0.6371019999186198

>  <NBS>  (259) 
0.8371019999186198

>  <source_stage>  (259) 
scored

>  <source_iter>  (259) 
12

>  <source_parent_mol>  (259) 
4

>  <source_scenario>  (259) 
1 1 2 0 0 0 0 4 2 0 0 4

>  <source_rank_in_scored_call>  (259) 
1

>  <source_current_task>  (259) 
close_aromatic_ring

>  <scenario>  (259) 
1 1 2 0 0 0 0 4 2 0 0

>  <current_task>  (259) 
no_task

$$$$

     RDKit          3D

 15 17  0  0  0  0  0  0  0  0999 V2000
  -28.0180   -6.9330  -32.0800 C   0  0  0  0  0  0  0  0  0  0  0  0
  -27.4150   -5.8220  -32.5180 N   0  0  0  0  0  0  0  0  0  0  0  0
  -28.1360   -8.1660  -32.6060 N   0  0  0  0  0  0  0  0  0  0  0  0
  -27.4180   -4.6570  -31.8100 C   0  0  0  0  0  0  0  0  0  0  0  0
  -28.0630   -4.6040  -30.5930 C   0  0  0  0  0  0  0  0  0  0  0  0
  -28.6950   -5.7580  -30.1280 C   0  0  0  0  0  0  0  0  0  0  0  0
  -28.6790   -6.9340  -30.8680 C   0  0  0  0  0  0  0  0  0  0  0  0
  -28.8580   -8.9530  -31.7560 C   0  0  0  0  0  0  0  0  0  0  0  0
  -29.2060   -8.1880  -30.6530 C   0  0  0  0  0  0  0  0  0  0  0  0
  -28.2398   -3.5068  -29.6261 C   0  0  0  0  0  0  0  0  0  0  0  0
  -27.4365   -3.2598  -28.5311 C   0  0  0  0  0  0  0  0  0  0  0  0
  -29.2952   -2.6730  -29.8627 N   0  0  0  0  0  0  0  0  0  0  0  0
  -27.7007   -2.1805  -27.6867 C   0  0  0  0  0  0  0  0  0  0  0  0
  -29.5408   -1.6339  -29.0408 C   0  0  0  0  0  0  0  0  0  0  0  0
  -28.7690   -1.3448  -27.9349 C   0  0  0  0  0  0  0  0  0  0  0  0
  1  3  1  0
  1  2  2  0
  1  7  1  0
  2  4  1  0
  3  8  1  0
  4  5  2  0
  5  6  1  0
  5 10  1  0
  6  7  2  0
  7  9  1  0
  8  9  2  0
 10 12  1  0
 10 11  2  0
 11 13  1  0
 12 14  2  0
 13 15  2  0
 14 15  1  0
M  END
>  <name>  (260) 
Car Nac Nd0 Car Car Car Car Car Car Car Car Nac Car Car Car

>  <indices>  (260) 
[0, 1, 2]

>  <tasks>  (260) 
probe_placing close_aromatic_ring close_aromatic_ring close_aromatic_ring close_aromatic_ring ring_built build_to_Nd0 close_aromatic_ring no_task close_aromatic_ring close_aromatic_ring close_aromatic_ring close_aromatic_ring

>  <prot_clashes>  (260) 
4

>  <NBS phar>  (260) 
0.19999999999999998

>  <NBS_non-phar>  (260) 
0.6359577178955078

>  <NBS>  (260) 
0.8359577178955078

>  <source_stage>  (260) 
scored

>  <source_iter>  (260) 
12

>  <source_parent_mol>  (260) 
4

>  <source_scenario>  (260) 
1 1 2 0 0 0 0 4 2 0 0 4

>  <source_rank_in_scored_call>  (260) 
2

>  <source_current_task>  (260) 
close_aromatic_ring

>  <scenario>  (260) 
1 1 2 0 0 0 0 4 2 0 0

>  <current_task>  (260) 
no_task

$$$$

     RDKit          3D

 15 17  0  0  0  0  0  0  0  0999 V2000
  -28.0180   -6.9330  -32.0800 C   0  0  0  0  0  0  0  0  0  0  0  0
  -27.4150   -5.8220  -32.5180 N   0  0  0  0  0  0  0  0  0  0  0  0
  -28.1360   -8.1660  -32.6060 N   0  0  0  0  0  0  0  0  0  0  0  0
  -27.4180   -4.6570  -31.8100 C   0  0  0  0  0  0  0  0  0  0  0  0
  -28.0630   -4.6040  -30.5930 C   0  0  0  0  0  0  0  0  0  0  0  0
  -28.6950   -5.7580  -30.1280 C   0  0  0  0  0  0  0  0  0  0  0  0
  -28.6790   -6.9340  -30.8680 C   0  0  0  0  0  0  0  0  0  0  0  0
  -28.8580   -8.9530  -31.7560 C   0  0  0  0  0  0  0  0  0  0  0  0
  -29.2060   -8.1880  -30.6530 C   0  0  0  0  0  0  0  0  0  0  0  0
  -28.1962   -3.4420  -29.6573 C   0  0  0  0  0  0  0  0  0  0  0  0
  -27.4314   -3.2639  -28.5232 C   0  0  0  0  0  0  0  0  0  0  0  0
  -29.2902   -2.6402  -29.8048 N   0  0  0  0  0  0  0  0  0  0  0  0
  -27.7190   -2.3292  -27.5517 C   0  0  0  0  0  0  0  0  0  0  0  0
  -29.6024   -1.7052  -28.8615 C   0  0  0  0  0  0  0  0  0  0  0  0
  -28.8312   -1.5341  -27.7297 C   0  0  0  0  0  0  0  0  0  0  0  0
  1  3  1  0
  1  2  2  0
  1  7  1  0
  2  4  1  0
  3  8  1  0
  4  5  2  0
  5  6  1  0
  5 10  1  0
  6  7  2  0
  7  9  1  0
  8  9  2  0
 10 12  1  0
 10 11  2  0
 11 13  1  0
 12 14  2  0
 13 15  2  0
 14 15  1  0
M  END
>  <name>  (261) 
Car Nac Nd0 Car Car Car Car Car Car Car Car Nac Car Car Car

>  <indices>  (261) 
[0, 1, 2]

>  <tasks>  (261) 
probe_placing close_aromatic_ring close_aromatic_ring close_aromatic_ring close_aromatic_ring ring_built build_to_Nd0 close_aromatic_ring no_task close_aromatic_ring close_aromatic_ring close_aromatic_ring close_aromatic_ring

>  <prot_clashes>  (261) 
4

>  <NBS phar>  (261) 
0.18

>  <NBS_non-phar>  (261) 
0.6203608194986979

>  <NBS>  (261) 
0.800360819498698

>  <source_stage>  (261) 
scored

>  <source_iter>  (261) 
12

>  <source_parent_mol>  (261) 
4

>  <source_scenario>  (261) 
1 1 2 0 0 0 0 4 2 0 0 4

>  <source_rank_in_scored_call>  (261) 
3

>  <source_current_task>  (261) 
close_aromatic_ring

>  <scenario>  (261) 
1 1 2 0 0 0 0 4 2 0 0

>  <current_task>  (261) 
no_task

$$$$

     RDKit          3D

 15 17  0  0  0  0  0  0  0  0999 V2000
  -27.9100   -7.0670  -31.9410 C   0  0  0  0  0  0  0  0  0  0  0  0
  -27.2900   -6.0780  -32.5950 N   0  0  0  0  0  0  0  0  0  0  0  0
  -27.9640   -8.3950  -32.1520 N   0  0  0  0  0  0  0  0  0  0  0  0
  -27.3710   -4.7750  -32.2010 C   0  0  0  0  0  0  0  0  0  0  0  0
  -28.1140   -4.4470  -31.0880 C   0  0  0  0  0  0  0  0  0  0  0  0
  -28.7630   -5.4730  -30.3990 C   0  0  0  0  0  0  0  0  0  0  0  0
  -28.6670   -6.7940  -30.8210 C   0  0  0  0  0  0  0  0  0  0  0  0
  -28.7410   -8.9740  -31.1890 C   0  0  0  0  0  0  0  0  0  0  0  0
  -29.1900   -7.9740  -30.3410 C   0  0  0  0  0  0  0  0  0  0  0  0
  -29.0570  -10.3760  -31.0910 C   0  0  0  0  0  0  0  0  0  0  0  0
  -29.6370  -10.9960  -32.1850 C   0  0  0  0  0  0  0  0  0  0  0  0
  -28.7600  -11.1900  -30.0140 C   0  0  0  0  0  0  0  0  0  0  0  0
  -29.0320  -12.5620  -30.0350 C   0  0  0  0  0  0  0  0  0  0  0  0
  -29.9110  -12.3480  -32.2170 C   0  0  0  0  0  0  0  0  0  0  0  0
  -29.5890  -13.0630  -31.1260 N   0  0  0  0  0  0  0  0  0  0  0  0
  1  2  2  0
  1  3  1  0
  1  7  1  0
  2  4  1  0
  3  8  1  0
  4  5  2  0
  5  6  1  0
  6  7  2  0
  7  9  1  0
  8 10  1  0
  8  9  2  0
 10 11  2  0
 10 12  1  0
 11 14  1  0
 12 13  2  0
 13 15  1  0
 14 15  2  0
M  END
>  <name>  (262) 
Car Nac Nd0 Car Car Car Car Car Car Car Car Car Car Car Nac

>  <indices>  (262) 
[0, 1, 2]

>  <tasks>  (262) 
probe_placing close_aromatic_ring close_aromatic_ring close_aromatic_ring close_aromatic_ring ring_built build_to_Nd0 close_aromatic_ring no_task close_aromatic_ring close_aromatic_ring close_aromatic_ring close_aromatic_ring

>  <prot_clashes>  (262) 
6

>  <NBS phar>  (262) 
0.1

>  <NBS_non-phar>  (262) 
0.5973519643147787

>  <NBS>  (262) 
0.6973519643147786

>  <source_stage>  (262) 
scored

>  <source_iter>  (262) 
12

>  <source_parent_mol>  (262) 
1

>  <source_scenario>  (262) 
1 1 2 0 0 0 0 7 0 2 0 1

>  <source_rank_in_scored_call>  (262) 
2

>  <source_current_task>  (262) 
close_aromatic_ring

>  <scenario>  (262) 
1 1 2 0 0 0 0 7 0 2 0

>  <current_task>  (262) 
no_task

$$$$

     RDKit          3D

 15 17  0  0  0  0  0  0  0  0999 V2000
  -27.9550   -7.1690  -32.0200 C   0  0  0  0  0  0  0  0  0  0  0  0
  -27.4480   -6.0640  -32.5770 N   0  0  0  0  0  0  0  0  0  0  0  0
  -27.8680   -8.4710  -32.3520 N   0  0  0  0  0  0  0  0  0  0  0  0
  -27.6660   -4.8190  -32.0660 C   0  0  0  0  0  0  0  0  0  0  0  0
  -28.4360   -4.6750  -30.9320 C   0  0  0  0  0  0  0  0  0  0  0  0
  -28.9680   -5.8240  -30.3440 C   0  0  0  0  0  0  0  0  0  0  0  0
  -28.7330   -7.0830  -30.8840 C   0  0  0  0  0  0  0  0  0  0  0  0
  -28.5740   -9.2150  -31.4510 C   0  0  0  0  0  0  0  0  0  0  0  0
  -29.1240   -8.3510  -30.5170 C   0  0  0  0  0  0  0  0  0  0  0  0
  -28.7220  -10.6830  -31.4700 C   0  0  0  0  0  0  0  0  0  0  0  0
  -29.1120  -11.1760  -32.7010 C   0  0  0  0  0  0  0  0  0  0  0  0
  -28.4040  -11.5190  -30.4210 C   0  0  0  0  0  0  0  0  0  0  0  0
  -28.4820  -12.8980  -30.6240 C   0  0  0  0  0  0  0  0  0  0  0  0
  -28.8800  -13.3770  -31.8770 C   0  0  0  0  0  0  0  0  0  0  0  0
  -29.1840  -12.5140  -32.8860 N   0  0  0  0  0  0  0  0  0  0  0  0
  1  2  2  0
  1  3  1  0
  1  7  1  0
  2  4  1  0
  3  8  1  0
  4  5  2  0
  5  6  1  0
  6  7  2  0
  7  9  1  0
  8 10  1  0
  8  9  2  0
 10 11  2  0
 10 12  1  0
 11 15  1  0
 12 13  2  0
 13 14  1  0
 14 15  2  0
M  END
>  <name>  (263) 
Car Nac Nd0 Car Car Car Car Car Car Car Car Car Car Car Nac

>  <indices>  (263) 
[0, 1, 2]

>  <tasks>  (263) 
probe_placing close_aromatic_ring close_aromatic_ring close_aromatic_ring close_aromatic_ring ring_built build_to_Nd0 close_aromatic_ring no_task close_aromatic_ring close_aromatic_ring close_aromatic_ring close_aromatic_ring

>  <prot_clashes>  (263) 
5

>  <NBS phar>  (263) 
0.1

>  <NBS_non-phar>  (263) 
0.4946449597676595

>  <NBS>  (263) 
0.5946449597676595

>  <source_stage>  (263) 
scored

>  <source_iter>  (263) 
12

>  <source_parent_mol>  (263) 
5

>  <source_scenario>  (263) 
1 1 2 0 0 0 0 7 0 2 0 5

>  <source_rank_in_scored_call>  (263) 
0

>  <source_current_task>  (263) 
close_aromatic_ring

>  <scenario>  (263) 
1 1 2 0 0 0 0 7 0 2 0

>  <current_task>  (263) 
no_task

$$$$

     RDKit          3D

 15 17  0  0  0  0  0  0  0  0999 V2000
  -27.9250   -7.0790  -32.1150 C   0  0  0  0  0  0  0  0  0  0  0  0
  -27.4850   -5.9440  -32.6700 N   0  0  0  0  0  0  0  0  0  0  0  0
  -27.8000   -8.3700  -32.4750 N   0  0  0  0  0  0  0  0  0  0  0  0
  -27.7310   -4.7180  -32.1270 C   0  0  0  0  0  0  0  0  0  0  0  0
  -28.4590   -4.6260  -30.9600 C   0  0  0  0  0  0  0  0  0  0  0  0
  -28.9210   -5.8050  -30.3730 C   0  0  0  0  0  0  0  0  0  0  0  0
  -28.6590   -7.0440  -30.9460 C   0  0  0  0  0  0  0  0  0  0  0  0
  -28.4390   -9.1580  -31.5600 C   0  0  0  0  0  0  0  0  0  0  0  0
  -28.9840   -8.3330  -30.5890 C   0  0  0  0  0  0  0  0  0  0  0  0
  -28.5370  -10.5830  -31.6080 C   0  0  0  0  0  0  0  0  0  0  0  0
  -29.0980  -11.1340  -32.7420 C   0  0  0  0  0  0  0  0  0  0  0  0
  -28.0780  -11.4820  -30.6450 C   0  0  0  0  0  0  0  0  0  0  0  0
  -28.1880  -12.8490  -30.8360 C   0  0  0  0  0  0  0  0  0  0  0  0
  -28.7570  -13.3630  -31.9890 C   0  0  0  0  0  0  0  0  0  0  0  0
  -29.1890  -12.4700  -32.8950 N   0  0  0  0  0  0  0  0  0  0  0  0
  1  2  2  0
  1  3  1  0
  1  7  1  0
  2  4  1  0
  3  8  1  0
  4  5  2  0
  5  6  1  0
  6  7  2  0
  7  9  1  0
  8 10  1  0
  8  9  2  0
 10 11  2  0
 10 12  1  0
 11 15  1  0
 12 13  2  0
 13 14  1  0
 14 15  2  0
M  END
>  <name>  (264) 
Car Nac Nd0 Car Car Car Car Car Car Car Car Car Car Car Nac

>  <indices>  (264) 
[0, 1, 2]

>  <tasks>  (264) 
probe_placing close_aromatic_ring close_aromatic_ring close_aromatic_ring close_aromatic_ring ring_built build_to_Nd0 close_aromatic_ring no_task close_aromatic_ring close_aromatic_ring close_aromatic_ring close_aromatic_ring

>  <prot_clashes>  (264) 
5

>  <NBS phar>  (264) 
0.1

>  <NBS_non-phar>  (264) 
0.4367581685384115

>  <NBS>  (264) 
0.5367581685384115

>  <source_stage>  (264) 
scored

>  <source_iter>  (264) 
12

>  <source_parent_mol>  (264) 
5

>  <source_scenario>  (264) 
1 1 2 0 0 0 0 7 0 2 0 5

>  <source_rank_in_scored_call>  (264) 
1

>  <source_current_task>  (264) 
close_aromatic_ring

>  <scenario>  (264) 
1 1 2 0 0 0 0 7 0 2 0

>  <current_task>  (264) 
no_task

$$$$

     RDKit          3D

 15 17  0  0  0  0  0  0  0  0999 V2000
  -27.9630   -6.7450  -31.9000 C   0  0  0  0  0  0  0  0  0  0  0  0
  -27.3950   -5.7410  -32.5770 N   0  0  0  0  0  0  0  0  0  0  0  0
  -28.0130   -8.0710  -32.1250 N   0  0  0  0  0  0  0  0  0  0  0  0
  -27.4680   -4.4440  -32.1620 C   0  0  0  0  0  0  0  0  0  0  0  0
  -28.1480   -4.1390  -31.0020 C   0  0  0  0  0  0  0  0  0  0  0  0
  -28.7430   -5.1810  -30.2900 C   0  0  0  0  0  0  0  0  0  0  0  0
  -28.6560   -6.4960  -30.7330 C   0  0  0  0  0  0  0  0  0  0  0  0
  -28.7240   -8.6720  -31.1260 C   0  0  0  0  0  0  0  0  0  0  0  0
  -29.1350   -7.6890  -30.2390 C   0  0  0  0  0  0  0  0  0  0  0  0
  -29.0200  -10.0890  -31.0370 C   0  0  0  0  0  0  0  0  0  0  0  0
  -29.6630  -10.6510  -32.1280 C   0  0  0  0  0  0  0  0  0  0  0  0
  -28.6580  -10.9230  -29.9950 C   0  0  0  0  0  0  0  0  0  0  0  0
  -28.9050  -12.2760  -29.9910 C   0  0  0  0  0  0  0  0  0  0  0  0
  -29.9070  -12.0100  -32.1160 C   0  0  0  0  0  0  0  0  0  0  0  0
  -29.5360  -12.7940  -31.0740 N   0  0  0  0  0  0  0  0  0  0  0  0
  1  2  2  0
  1  3  1  0
  1  7  1  0
  2  4  1  0
  3  8  1  0
  4  5  2  0
  5  6  1  0
  6  7  2  0
  7  9  1  0
  8 10  1  0
  8  9  2  0
 10 11  2  0
 10 12  1  0
 11 14  1  0
 12 13  2  0
 13 15  1  0
 14 15  2  0
M  END
>  <name>  (265) 
Car Nac Nd0 Car Car Car Car Car Car Car Car Car Car Car Nac

>  <indices>  (265) 
[0, 1, 2]

>  <tasks>  (265) 
probe_placing close_aromatic_ring close_aromatic_ring close_aromatic_ring close_aromatic_ring ring_built build_to_Nd0 close_aromatic_ring no_task close_aromatic_ring close_aromatic_ring close_aromatic_ring close_aromatic_ring

>  <prot_clashes>  (265) 
7

>  <NBS phar>  (265) 
0.1

>  <NBS_non-phar>  (265) 
0.5303838729858399

>  <NBS>  (265) 
0.6303838729858399

>  <source_stage>  (265) 
scored

>  <source_iter>  (265) 
12

>  <source_parent_mol>  (265) 
1

>  <source_scenario>  (265) 
1 1 2 0 0 0 0 7 0 2 0 1

>  <source_rank_in_scored_call>  (265) 
5

>  <source_current_task>  (265) 
close_aromatic_ring

>  <scenario>  (265) 
1 1 2 0 0 0 0 7 0 2 0

>  <current_task>  (265) 
no_task

$$$$

     RDKit          3D

 15 17  0  0  0  0  0  0  0  0999 V2000
  -27.9010   -7.1190  -31.9720 C   0  0  0  0  0  0  0  0  0  0  0  0
  -27.3680   -6.0190  -32.5140 N   0  0  0  0  0  0  0  0  0  0  0  0
  -27.8250   -8.4200  -32.3060 N   0  0  0  0  0  0  0  0  0  0  0  0
  -27.5790   -4.7720  -32.0030 C   0  0  0  0  0  0  0  0  0  0  0  0
  -28.3690   -4.6220  -30.8840 C   0  0  0  0  0  0  0  0  0  0  0  0
  -28.9290   -5.7650  -30.3110 C   0  0  0  0  0  0  0  0  0  0  0  0
  -28.7010   -7.0250  -30.8510 C   0  0  0  0  0  0  0  0  0  0  0  0
  -28.5590   -9.1580  -31.4220 C   0  0  0  0  0  0  0  0  0  0  0  0
  -29.1160   -8.2890  -30.4970 C   0  0  0  0  0  0  0  0  0  0  0  0
  -28.7250  -10.5880  -31.4490 C   0  0  0  0  0  0  0  0  0  0  0  0
  -29.1010  -11.1020  -32.6940 C   0  0  0  0  0  0  0  0  0  0  0  0
  -28.4460  -11.4840  -30.4160 C   0  0  0  0  0  0  0  0  0  0  0  0
  -28.5360  -12.8530  -30.6090 C   0  0  0  0  0  0  0  0  0  0  0  0
  -28.9140  -13.3280  -31.8660 C   0  0  0  0  0  0  0  0  0  0  0  0
  -29.1830  -12.4430  -32.8650 N   0  0  0  0  0  0  0  0  0  0  0  0
  1  2  2  0
  1  3  1  0
  1  7  1  0
  2  4  1  0
  3  8  1  0
  4  5  2  0
  5  6  1  0
  6  7  2  0
  7  9  1  0
  8 10  1  0
  8  9  2  0
 10 11  2  0
 10 12  1  0
 11 15  1  0
 12 13  2  0
 13 14  1  0
 14 15  2  0
M  END
>  <name>  (266) 
Car Nac Nd0 Car Car Car Car Car Car Car Car Car Car Car Nac

>  <indices>  (266) 
[0, 1, 2]

>  <tasks>  (266) 
probe_placing close_aromatic_ring close_aromatic_ring close_aromatic_ring close_aromatic_ring ring_built build_to_Nd0 close_aromatic_ring no_task close_aromatic_ring close_aromatic_ring close_aromatic_ring close_aromatic_ring

>  <prot_clashes>  (266) 
4

>  <NBS phar>  (266) 
0.1

>  <NBS_non-phar>  (266) 
0.5216813723246256

>  <NBS>  (266) 
0.6216813723246256

>  <source_stage>  (266) 
scored

>  <source_iter>  (266) 
12

>  <source_parent_mol>  (266) 
5

>  <source_scenario>  (266) 
1 1 2 0 0 0 0 7 0 2 0 5

>  <source_rank_in_scored_call>  (266) 
0

>  <source_current_task>  (266) 
close_aromatic_ring

>  <scenario>  (266) 
1 1 2 0 0 0 0 7 0 2 0

>  <current_task>  (266) 
no_task

$$$$

     RDKit          3D

 15 17  0  0  0  0  0  0  0  0999 V2000
  -27.8779   -7.5815  -31.1793 C   0  0  0  0  0  0  0  0  0  0  0  0
  -27.5855   -6.6352  -32.0772 N   0  0  0  0  0  0  0  0  0  0  0  0
  -27.7543   -8.9219  -31.2047 N   0  0  0  0  0  0  0  0  0  0  0  0
  -27.7958   -5.3090  -31.8400 C   0  0  0  0  0  0  0  0  0  0  0  0
  -28.3299   -4.9112  -30.6330 C   0  0  0  0  0  0  0  0  0  0  0  0
  -28.6380   -5.8933  -29.6902 C   0  0  0  0  0  0  0  0  0  0  0  0
  -28.4146   -7.2391  -29.9548 C   0  0  0  0  0  0  0  0  0  0  0  0
  -28.2005   -9.4396  -30.0231 C   0  0  0  0  0  0  0  0  0  0  0  0
  -28.6205   -8.3878  -29.2244 C   0  0  0  0  0  0  0  0  0  0  0  0
  -28.2500  -10.8678  -29.6812 C   0  0  0  0  0  0  0  0  0  0  0  0
  -28.9654  -11.6821  -30.5678 C   0  0  0  0  0  0  0  0  0  0  0  0
  -27.6136  -11.4706  -28.6133 C   0  0  0  0  0  0  0  0  0  0  0  0
  -29.0277  -13.0518  -30.3719 C   0  0  0  0  0  0  0  0  0  0  0  0
  -28.3653  -13.5912  -29.2789 C   0  0  0  0  0  0  0  0  0  0  0  0
  -27.6674  -12.7996  -28.4132 N   0  0  0  0  0  0  0  0  0  0  0  0
  1  2  2  0
  1  3  1  0
  2  4  1  0
  4  5  2  0
  5  6  1  0
  6  7  2  0
  1  7  1  0
  3  8  1  0
  8  9  2  0
  7  9  1  0
  8 10  1  0
 10 11  2  0
 10 12  1  0
 11 13  1  0
 13 14  2  0
 14 15  1  0
 12 15  2  0
M  END
>  <name>  (267) 
Car Nac Nd0 Car Car Car Car Car Car Car Car Car Car Car Nac

>  <indices>  (267) 
[0, 1, 2]

>  <tasks>  (267) 
probe_placing close_aromatic_ring close_aromatic_ring close_aromatic_ring close_aromatic_ring ring_built build_to_Nd0 close_aromatic_ring no_task close_aromatic_ring close_aromatic_ring close_aromatic_ring close_aromatic_ring

>  <prot_clashes>  (267) 
0

>  <NBS phar>  (267) 
0.2

>  <NBS_non-phar>  (267) 
0.7304983774820963

>  <NBS>  (267) 
0.9304983774820963

>  <source_stage>  (267) 
scored

>  <source_iter>  (267) 
12

>  <source_parent_mol>  (267) 
2

>  <source_scenario>  (267) 
1 1 2 0 0 0 0 7 0 2 3 2

>  <source_rank_in_scored_call>  (267) 
0

>  <source_current_task>  (267) 
close_aromatic_ring

>  <scenario>  (267) 
1 1 2 0 0 0 0 7 0 2 3

>  <current_task>  (267) 
no_task

$$$$

     RDKit          3D

 15 17  0  0  0  0  0  0  0  0999 V2000
  -27.8280   -7.3150  -31.9180 C   0  0  0  0  0  0  0  0  0  0  0  0
  -27.3150   -6.2340  -32.5150 N   0  0  0  0  0  0  0  0  0  0  0  0
  -27.6100   -8.6320  -32.0910 N   0  0  0  0  0  0  0  0  0  0  0  0
  -27.6850   -4.9650  -32.1790 C   0  0  0  0  0  0  0  0  0  0  0  0
  -28.6230   -4.7710  -31.1860 C   0  0  0  0  0  0  0  0  0  0  0  0
  -29.1630   -5.8950  -30.5580 C   0  0  0  0  0  0  0  0  0  0  0  0
  -28.7700   -7.1780  -30.9190 C   0  0  0  0  0  0  0  0  0  0  0  0
  -28.3940   -9.3370  -31.2220 C   0  0  0  0  0  0  0  0  0  0  0  0
  -29.1300   -8.4320  -30.4760 C   0  0  0  0  0  0  0  0  0  0  0  0
  -28.4560  -10.8020  -31.1260 C   0  0  0  0  0  0  0  0  0  0  0  0
  -28.7700  -11.4770  -32.3120 C   0  0  0  0  0  0  0  0  0  0  0  0
  -28.1790  -11.5560  -30.0020 C   0  0  0  0  0  0  0  0  0  0  0  0
  -28.8010  -12.8620  -32.3470 C   0  0  0  0  0  0  0  0  0  0  0  0
  -28.5110  -13.5560  -31.1810 C   0  0  0  0  0  0  0  0  0  0  0  0
  -28.2040  -12.9000  -30.0240 N   0  0  0  0  0  0  0  0  0  0  0  0
  1  2  2  0
  1  3  1  0
  1  7  1  0
  2  4  1  0
  3  8  1  0
  4  5  2  0
  5  6  1  0
  6  7  2  0
  7  9  1  0
  8 10  1  0
  8  9  2  0
 10 11  2  0
 10 12  1  0
 11 13  1  0
 12 15  2  0
 13 14  2  0
 14 15  1  0
M  END
>  <name>  (268) 
Car Nac Nd0 Car Car Car Car Car Car Car Car Car Car Car Nac

>  <indices>  (268) 
[0, 1, 2]

>  <tasks>  (268) 
probe_placing close_aromatic_ring close_aromatic_ring close_aromatic_ring close_aromatic_ring ring_built build_to_Nd0 close_aromatic_ring no_task close_aromatic_ring close_aromatic_ring close_aromatic_ring close_aromatic_ring

>  <prot_clashes>  (268) 
4

>  <NBS phar>  (268) 
0.12

>  <NBS_non-phar>  (268) 
0.5157236099243164

>  <NBS>  (268) 
0.6357236099243164

>  <source_stage>  (268) 
scored

>  <source_iter>  (268) 
12

>  <source_parent_mol>  (268) 
2

>  <source_scenario>  (268) 
1 1 2 0 0 0 0 7 0 2 3 2

>  <source_rank_in_scored_call>  (268) 
5

>  <source_current_task>  (268) 
close_aromatic_ring

>  <scenario>  (268) 
1 1 2 0 0 0 0 7 0 2 3

>  <current_task>  (268) 
no_task

$$$$

     RDKit          3D

 15 17  0  0  0  0  0  0  0  0999 V2000
  -27.8779   -7.5815  -31.1793 C   0  0  0  0  0  0  0  0  0  0  0  0
  -27.5855   -6.6352  -32.0772 N   0  0  0  0  0  0  0  0  0  0  0  0
  -27.7543   -8.9219  -31.2047 N   0  0  0  0  0  0  0  0  0  0  0  0
  -27.7958   -5.3090  -31.8400 C   0  0  0  0  0  0  0  0  0  0  0  0
  -28.3299   -4.9112  -30.6330 C   0  0  0  0  0  0  0  0  0  0  0  0
  -28.6380   -5.8933  -29.6902 C   0  0  0  0  0  0  0  0  0  0  0  0
  -28.4146   -7.2391  -29.9548 C   0  0  0  0  0  0  0  0  0  0  0  0
  -28.2005   -9.4396  -30.0231 C   0  0  0  0  0  0  0  0  0  0  0  0
  -28.6205   -8.3878  -29.2244 C   0  0  0  0  0  0  0  0  0  0  0  0
  -28.2574  -10.8871  -29.6875 C   0  0  0  0  0  0  0  0  0  0  0  0
  -28.9688  -11.6705  -30.5813 C   0  0  0  0  0  0  0  0  0  0  0  0
  -27.6139  -11.4850  -28.5974 C   0  0  0  0  0  0  0  0  0  0  0  0
  -29.0080  -13.0285  -30.3470 C   0  0  0  0  0  0  0  0  0  0  0  0
  -28.3751  -13.6262  -29.2730 C   0  0  0  0  0  0  0  0  0  0  0  0
  -27.6941  -12.8216  -28.4292 N   0  0  0  0  0  0  0  0  0  0  0  0
  1  2  2  0
  1  3  1  0
  2  4  1  0
  4  5  2  0
  5  6  1  0
  6  7  2  0
  1  7  1  0
  3  8  1  0
  8  9  2  0
  7  9  1  0
  8 10  1  0
 10 11  2  0
 10 12  1  0
 11 13  1  0
 13 14  2  0
 14 15  1  0
 12 15  2  0
M  END
>  <name>  (269) 
Car Nac Nd0 Car Car Car Car Car Car Car Car Car Car Car Nac

>  <indices>  (269) 
[0, 1, 2]

>  <tasks>  (269) 
probe_placing close_aromatic_ring close_aromatic_ring close_aromatic_ring close_aromatic_ring ring_built build_to_Nd0 close_aromatic_ring no_task close_aromatic_ring close_aromatic_ring close_aromatic_ring close_aromatic_ring

>  <prot_clashes>  (269) 
0

>  <NBS phar>  (269) 
0.2

>  <NBS_non-phar>  (269) 
0.7271678924560547

>  <NBS>  (269) 
0.9271678924560547

>  <source_stage>  (269) 
scored

>  <source_iter>  (269) 
12

>  <source_parent_mol>  (269) 
2

>  <source_scenario>  (269) 
1 1 2 0 0 0 0 7 0 2 3 2

>  <source_rank_in_scored_call>  (269) 
1

>  <source_current_task>  (269) 
close_aromatic_ring

>  <scenario>  (269) 
1 1 2 0 0 0 0 7 0 2 3

>  <current_task>  (269) 
no_task

$$$$

     RDKit          3D

 15 17  0  0  0  0  0  0  0  0999 V2000
  -27.8280   -7.3100  -31.9250 C   0  0  0  0  0  0  0  0  0  0  0  0
  -27.3140   -6.2220  -32.5090 N   0  0  0  0  0  0  0  0  0  0  0  0
  -27.6160   -8.6250  -32.1180 N   0  0  0  0  0  0  0  0  0  0  0  0
  -27.6770   -4.9570  -32.1530 C   0  0  0  0  0  0  0  0  0  0  0  0
  -28.6080   -4.7740  -31.1540 C   0  0  0  0  0  0  0  0  0  0  0  0
  -29.1500   -5.9040  -30.5390 C   0  0  0  0  0  0  0  0  0  0  0  0
  -28.7650   -7.1840  -30.9200 C   0  0  0  0  0  0  0  0  0  0  0  0
  -28.3980   -9.3390  -31.2550 C   0  0  0  0  0  0  0  0  0  0  0  0
  -29.1280   -8.4410  -30.4920 C   0  0  0  0  0  0  0  0  0  0  0  0
  -28.4700  -10.8230  -31.1910 C   0  0  0  0  0  0  0  0  0  0  0  0
  -28.7900  -11.4490  -32.3840 C   0  0  0  0  0  0  0  0  0  0  0  0
  -28.1910  -11.5920  -30.0550 C   0  0  0  0  0  0  0  0  0  0  0  0
  -28.8170  -12.8260  -32.3940 C   0  0  0  0  0  0  0  0  0  0  0  0
  -28.5420  -13.5930  -31.2770 C   0  0  0  0  0  0  0  0  0  0  0  0
  -28.2360  -12.9390  -30.1360 N   0  0  0  0  0  0  0  0  0  0  0  0
  1  2  2  0
  1  3  1  0
  1  7  1  0
  2  4  1  0
  3  8  1  0
  4  5  2  0
  5  6  1  0
  6  7  2  0
  7  9  1  0
  8 10  1  0
  8  9  2  0
 10 11  2  0
 10 12  1  0
 11 13  1  0
 12 15  2  0
 13 14  2  0
 14 15  1  0
M  END
>  <name>  (270) 
Car Nac Nd0 Car Car Car Car Car Car Car Car Car Car Car Nac

>  <indices>  (270) 
[0, 1, 2]

>  <tasks>  (270) 
probe_placing close_aromatic_ring close_aromatic_ring close_aromatic_ring close_aromatic_ring ring_built build_to_Nd0 close_aromatic_ring no_task close_aromatic_ring close_aromatic_ring close_aromatic_ring close_aromatic_ring

>  <prot_clashes>  (270) 
6

>  <NBS phar>  (270) 
0.1

>  <NBS_non-phar>  (270) 
0.5136493682861328

>  <NBS>  (270) 
0.6136493682861328

>  <source_stage>  (270) 
scored

>  <source_iter>  (270) 
12

>  <source_parent_mol>  (270) 
2

>  <source_scenario>  (270) 
1 1 2 0 0 0 0 7 0 2 3 2

>  <source_rank_in_scored_call>  (270) 
6

>  <source_current_task>  (270) 
close_aromatic_ring

>  <scenario>  (270) 
1 1 2 0 0 0 0 7 0 2 3

>  <current_task>  (270) 
no_task

$$$$

     RDKit          3D

 15 17  0  0  0  0  0  0  0  0999 V2000
  -27.8779   -7.5815  -31.1793 C   0  0  0  0  0  0  0  0  0  0  0  0
  -27.5855   -6.6352  -32.0772 N   0  0  0  0  0  0  0  0  0  0  0  0
  -27.7543   -8.9219  -31.2047 N   0  0  0  0  0  0  0  0  0  0  0  0
  -27.7958   -5.3090  -31.8400 C   0  0  0  0  0  0  0  0  0  0  0  0
  -28.3299   -4.9112  -30.6330 C   0  0  0  0  0  0  0  0  0  0  0  0
  -28.6380   -5.8933  -29.6902 C   0  0  0  0  0  0  0  0  0  0  0  0
  -28.4146   -7.2391  -29.9548 C   0  0  0  0  0  0  0  0  0  0  0  0
  -28.2005   -9.4396  -30.0231 C   0  0  0  0  0  0  0  0  0  0  0  0
  -28.6205   -8.3878  -29.2244 C   0  0  0  0  0  0  0  0  0  0  0  0
  -28.1615  -10.8571  -29.6409 C   0  0  0  0  0  0  0  0  0  0  0  0
  -28.6687  -11.3725  -28.5014 N   0  0  0  0  0  0  0  0  0  0  0  0
  -27.7509  -11.7347  -30.6380 C   0  0  0  0  0  0  0  0  0  0  0  0
  -28.7867  -12.7032  -28.3059 C   0  0  0  0  0  0  0  0  0  0  0  0
  -27.8541  -13.1138  -30.4793 C   0  0  0  0  0  0  0  0  0  0  0  0
  -28.3834  -13.5599  -29.2848 C   0  0  0  0  0  0  0  0  0  0  0  0
  1  2  2  0
  1  3  1  0
  2  4  1  0
  4  5  2  0
  5  6  1  0
  6  7  2  0
  1  7  1  0
  3  8  1  0
  8  9  2  0
  7  9  1  0
  8 10  1  0
 10 11  2  0
 10 12  1  0
 11 13  1  0
 12 14  2  0
 14 15  1  0
 13 15  2  0
M  END
>  <name>  (271) 
Car Nac Nd0 Car Car Car Car Car Car Car Nac Car Car Car Car

>  <indices>  (271) 
[0, 1, 2]

>  <tasks>  (271) 
probe_placing close_aromatic_ring close_aromatic_ring close_aromatic_ring close_aromatic_ring ring_built build_to_Nd0 close_aromatic_ring no_task close_aromatic_ring close_aromatic_ring close_aromatic_ring close_aromatic_ring

>  <prot_clashes>  (271) 
1

>  <NBS phar>  (271) 
0.2

>  <NBS_non-phar>  (271) 
0.6080172856648763

>  <NBS>  (271) 
0.8080172856648764

>  <source_stage>  (271) 
scored

>  <source_iter>  (271) 
12

>  <source_parent_mol>  (271) 
3

>  <source_scenario>  (271) 
1 1 2 0 0 0 0 7 4 1 0 3

>  <source_rank_in_scored_call>  (271) 
0

>  <source_current_task>  (271) 
close_aromatic_ring

>  <scenario>  (271) 
1 1 2 0 0 0 0 7 4 1 0

>  <current_task>  (271) 
no_task

$$$$

     RDKit          3D

 15 17  0  0  0  0  0  0  0  0999 V2000
  -27.8779   -7.5815  -31.1793 C   0  0  0  0  0  0  0  0  0  0  0  0
  -27.5855   -6.6352  -32.0772 N   0  0  0  0  0  0  0  0  0  0  0  0
  -27.7543   -8.9219  -31.2047 N   0  0  0  0  0  0  0  0  0  0  0  0
  -27.7958   -5.3090  -31.8400 C   0  0  0  0  0  0  0  0  0  0  0  0
  -28.3299   -4.9112  -30.6330 C   0  0  0  0  0  0  0  0  0  0  0  0
  -28.6380   -5.8933  -29.6902 C   0  0  0  0  0  0  0  0  0  0  0  0
  -28.4146   -7.2391  -29.9548 C   0  0  0  0  0  0  0  0  0  0  0  0
  -28.2005   -9.4396  -30.0231 C   0  0  0  0  0  0  0  0  0  0  0  0
  -28.6205   -8.3878  -29.2244 C   0  0  0  0  0  0  0  0  0  0  0  0
  -28.2298  -10.7908  -29.6810 C   0  0  0  0  0  0  0  0  0  0  0  0
  -28.6528  -11.3104  -28.5182 N   0  0  0  0  0  0  0  0  0  0  0  0
  -27.7584  -11.7018  -30.6223 C   0  0  0  0  0  0  0  0  0  0  0  0
  -28.6550  -12.6073  -28.2042 C   0  0  0  0  0  0  0  0  0  0  0  0
  -27.7353  -13.0697  -30.3536 C   0  0  0  0  0  0  0  0  0  0  0  0
  -28.1938  -13.5338  -29.1166 C   0  0  0  0  0  0  0  0  0  0  0  0
  1  2  2  0
  1  3  1  0
  2  4  1  0
  4  5  2  0
  5  6  1  0
  6  7  2  0
  1  7  1  0
  3  8  1  0
  8  9  2  0
  7  9  1  0
  8 10  1  0
 10 11  2  0
 10 12  1  0
 11 13  1  0
 12 14  2  0
 13 15  2  0
 14 15  1  0
M  END
>  <name>  (272) 
Car Nac Nd0 Car Car Car Car Car Car Car Nac Car Car Car Car

>  <indices>  (272) 
[0, 1, 2]

>  <tasks>  (272) 
probe_placing close_aromatic_ring close_aromatic_ring close_aromatic_ring close_aromatic_ring ring_built build_to_Nd0 close_aromatic_ring no_task close_aromatic_ring close_aromatic_ring close_aromatic_ring close_aromatic_ring

>  <prot_clashes>  (272) 
1

>  <NBS phar>  (272) 
0.2

>  <NBS_non-phar>  (272) 
0.5928327560424804

>  <NBS>  (272) 
0.7928327560424804

>  <source_stage>  (272) 
scored

>  <source_iter>  (272) 
12

>  <source_parent_mol>  (272) 
3

>  <source_scenario>  (272) 
1 1 2 0 0 0 0 7 4 1 0 3

>  <source_rank_in_scored_call>  (272) 
1

>  <source_current_task>  (272) 
close_aromatic_ring

>  <scenario>  (272) 
1 1 2 0 0 0 0 7 4 1 0

>  <current_task>  (272) 
no_task

$$$$

     RDKit          3D

 15 17  0  0  0  0  0  0  0  0999 V2000
  -28.0480   -7.3290  -31.9080 C   0  0  0  0  0  0  0  0  0  0  0  0
  -27.5470   -6.2850  -32.5780 N   0  0  0  0  0  0  0  0  0  0  0  0
  -28.0000   -8.6550  -32.1330 N   0  0  0  0  0  0  0  0  0  0  0  0
  -27.7180   -4.9980  -32.1640 C   0  0  0  0  0  0  0  0  0  0  0  0
  -28.4320   -4.7430  -31.0130 C   0  0  0  0  0  0  0  0  0  0  0  0
  -28.9580   -5.8270  -30.3070 C   0  0  0  0  0  0  0  0  0  0  0  0
  -28.7710   -7.1310  -30.7500 C   0  0  0  0  0  0  0  0  0  0  0  0
  -28.6770   -9.3060  -31.1420 C   0  0  0  0  0  0  0  0  0  0  0  0
  -29.1680   -8.3560  -30.2610 C   0  0  0  0  0  0  0  0  0  0  0  0
  -28.7890  -10.7630  -30.9970 C   0  0  0  0  0  0  0  0  0  0  0  0
  -29.5180  -11.4010  -30.0560 N   0  0  0  0  0  0  0  0  0  0  0  0
  -28.2610  -11.5120  -32.0430 C   0  0  0  0  0  0  0  0  0  0  0  0
  -29.7460  -12.7300  -30.1040 C   0  0  0  0  0  0  0  0  0  0  0  0
  -28.4710  -12.8850  -32.1320 C   0  0  0  0  0  0  0  0  0  0  0  0
  -29.2260  -13.4600  -31.1310 C   0  0  0  0  0  0  0  0  0  0  0  0
  1  2  2  0
  1  3  1  0
  1  7  1  0
  2  4  1  0
  3  8  1  0
  4  5  2  0
  5  6  1  0
  6  7  2  0
  7  9  1  0
  8 10  1  0
  8  9  2  0
 10 12  1  0
 10 11  2  0
 11 13  1  0
 12 14  2  0
 13 15  2  0
 14 15  1  0
M  END
>  <name>  (273) 
Car Nac Nd0 Car Car Car Car Car Car Car Nac Car Car Car Car

>  <indices>  (273) 
[0, 1, 2]

>  <tasks>  (273) 
probe_placing close_aromatic_ring close_aromatic_ring close_aromatic_ring close_aromatic_ring ring_built build_to_Nd0 close_aromatic_ring no_task close_aromatic_ring close_aromatic_ring close_aromatic_ring close_aromatic_ring

>  <prot_clashes>  (273) 
0

>  <NBS phar>  (273) 
0.13999999999999999

>  <NBS_non-phar>  (273) 
0.5033309936523438

>  <NBS>  (273) 
0.6433309936523438

>  <source_stage>  (273) 
scored

>  <source_iter>  (273) 
12

>  <source_parent_mol>  (273) 
3

>  <source_scenario>  (273) 
1 1 2 0 0 0 0 7 4 1 0 3

>  <source_rank_in_scored_call>  (273) 
4

>  <source_current_task>  (273) 
close_aromatic_ring

>  <scenario>  (273) 
1 1 2 0 0 0 0 7 4 1 0

>  <current_task>  (273) 
no_task

$$$$

     RDKit          3D

 15 17  0  0  0  0  0  0  0  0999 V2000
  -28.0410   -7.3050  -31.9640 C   0  0  0  0  0  0  0  0  0  0  0  0
  -27.5470   -6.2630  -32.6420 N   0  0  0  0  0  0  0  0  0  0  0  0
  -28.0150   -8.6300  -32.1980 N   0  0  0  0  0  0  0  0  0  0  0  0
  -27.6910   -4.9760  -32.2160 C   0  0  0  0  0  0  0  0  0  0  0  0
  -28.3670   -4.7200  -31.0420 C   0  0  0  0  0  0  0  0  0  0  0  0
  -28.8840   -5.8010  -30.3280 C   0  0  0  0  0  0  0  0  0  0  0  0
  -28.7260   -7.1050  -30.7830 C   0  0  0  0  0  0  0  0  0  0  0  0
  -28.6710   -9.2790  -31.1910 C   0  0  0  0  0  0  0  0  0  0  0  0
  -29.1240   -8.3280  -30.2900 C   0  0  0  0  0  0  0  0  0  0  0  0
  -28.8520  -10.6570  -31.0880 C   0  0  0  0  0  0  0  0  0  0  0  0
  -29.4810  -11.3070  -30.0960 N   0  0  0  0  0  0  0  0  0  0  0  0
  -28.3150  -11.4530  -32.0960 C   0  0  0  0  0  0  0  0  0  0  0  0
  -29.6270  -12.6300  -30.0070 C   0  0  0  0  0  0  0  0  0  0  0  0
  -28.4350  -12.8410  -32.0610 C   0  0  0  0  0  0  0  0  0  0  0  0
  -29.1070  -13.4450  -30.9930 C   0  0  0  0  0  0  0  0  0  0  0  0
  1  2  2  0
  1  3  1  0
  1  7  1  0
  2  4  1  0
  3  8  1  0
  4  5  2  0
  5  6  1  0
  6  7  2  0
  7  9  1  0
  8 10  1  0
  8  9  2  0
 10 12  1  0
 10 11  2  0
 11 13  1  0
 12 14  2  0
 13 15  2  0
 14 15  1  0
M  END
>  <name>  (274) 
Car Nac Nd0 Car Car Car Car Car Car Car Nac Car Car Car Car

>  <indices>  (274) 
[0, 1, 2]

>  <tasks>  (274) 
probe_placing close_aromatic_ring close_aromatic_ring close_aromatic_ring close_aromatic_ring ring_built build_to_Nd0 close_aromatic_ring no_task close_aromatic_ring close_aromatic_ring close_aromatic_ring close_aromatic_ring

>  <prot_clashes>  (274) 
0

>  <NBS phar>  (274) 
0.12

>  <NBS_non-phar>  (274) 
0.5142221450805664

>  <NBS>  (274) 
0.6342221450805664

>  <source_stage>  (274) 
scored

>  <source_iter>  (274) 
12

>  <source_parent_mol>  (274) 
3

>  <source_scenario>  (274) 
1 1 2 0 0 0 0 7 4 1 0 3

>  <source_rank_in_scored_call>  (274) 
6

>  <source_current_task>  (274) 
close_aromatic_ring

>  <scenario>  (274) 
1 1 2 0 0 0 0 7 4 1 0

>  <current_task>  (274) 
no_task

$$$$

     RDKit          3D

 14 16  0  0  0  0  0  0  0  0999 V2000
  -27.9560   -6.7760  -32.1020 C   0  0  0  0  0  0  0  0  0  0  0  0
  -27.4930   -5.7980  -32.8880 N   0  0  0  0  0  0  0  0  0  0  0  0
  -28.0560   -8.1060  -32.2780 N   0  0  0  0  0  0  0  0  0  0  0  0
  -27.4860   -4.4900  -32.5050 C   0  0  0  0  0  0  0  0  0  0  0  0
  -27.9690   -4.1440  -31.2600 C   0  0  0  0  0  0  0  0  0  0  0  0
  -28.4530   -5.1580  -30.4330 C   0  0  0  0  0  0  0  0  0  0  0  0
  -28.4510   -6.4850  -30.8470 C   0  0  0  0  0  0  0  0  0  0  0  0
  -28.6050   -8.6700  -31.1610 C   0  0  0  0  0  0  0  0  0  0  0  0
  -28.8580   -7.6570  -30.2500 C   0  0  0  0  0  0  0  0  0  0  0  0
  -28.9530   -9.9750  -30.7910 C   0  0  0  0  0  0  0  0  0  0  0  0
  -29.9340  -10.7540  -31.3680 C   0  0  0  0  0  0  0  0  0  0  0  0
  -28.4090  -10.7090  -29.7420 C   0  0  0  0  0  0  0  0  0  0  0  0
  -29.0410  -11.9180  -29.6720 N   0  0  0  0  0  0  0  0  0  0  0  0
  -29.9640  -11.9400  -30.6610 C   0  0  0  0  0  0  0  0  0  0  0  0
  1  2  2  0
  1  3  1  0
  1  7  1  0
  2  4  1  0
  3  8  1  0
  4  5  2  0
  5  6  1  0
  6  7  2  0
  7  9  1  0
  8 10  1  0
  8  9  2  0
 10 11  1  0
 10 12  2  0
 11 14  2  0
 12 13  1  0
 13 14  1  0
M  END
>  <name>  (275) 
Car Nac Nd0 Car Car Car Car Car Car Car Car Car Nd0 Car

>  <indices>  (275) 
[0, 1, 2]

>  <tasks>  (275) 
probe_placing close_aromatic_ring close_aromatic_ring close_aromatic_ring close_aromatic_ring ring_built build_to_Nd0 close_aromatic_ring no_task close_aromatic_ring close_aromatic_ring close_aromatic_ring

>  <prot_clashes>  (275) 
4

>  <NBS phar>  (275) 
0.12

>  <NBS_non-phar>  (275) 
0.5428436483655658

>  <NBS>  (275) 
0.6628436483655658

>  <source_stage>  (275) 
scored

>  <source_iter>  (275) 
11

>  <source_parent_mol>  (275) 
5

>  <source_scenario>  (275) 
1 1 2 0 0 0 0 9 0 3 5

>  <source_rank_in_scored_call>  (275) 
1

>  <source_current_task>  (275) 
close_aromatic_ring

>  <scenario>  (275) 
1 1 2 0 0 0 0 9 0 3

>  <current_task>  (275) 
no_task

$$$$

     RDKit          3D

 14 16  0  0  0  0  0  0  0  0999 V2000
  -27.9130   -6.7630  -32.0740 C   0  0  0  0  0  0  0  0  0  0  0  0
  -27.3340   -5.7700  -32.7580 N   0  0  0  0  0  0  0  0  0  0  0  0
  -27.9770   -8.0900  -32.2880 N   0  0  0  0  0  0  0  0  0  0  0  0
  -27.3940   -4.4690  -32.3550 C   0  0  0  0  0  0  0  0  0  0  0  0
  -28.0720   -4.1470  -31.1980 C   0  0  0  0  0  0  0  0  0  0  0  0
  -28.6780   -5.1770  -30.4780 C   0  0  0  0  0  0  0  0  0  0  0  0
  -28.6040   -6.4960  -30.9100 C   0  0  0  0  0  0  0  0  0  0  0  0
  -28.6960   -8.6750  -31.2840 C   0  0  0  0  0  0  0  0  0  0  0  0
  -29.0960   -7.6800  -30.4070 C   0  0  0  0  0  0  0  0  0  0  0  0
  -29.0930   -9.9873  -30.9976 C   0  0  0  0  0  0  0  0  0  0  0  0
  -29.9650  -10.7569  -31.7389 C   0  0  0  0  0  0  0  0  0  0  0  0
  -28.7208  -10.7401  -29.8888 C   0  0  0  0  0  0  0  0  0  0  0  0
  -29.3500  -11.9513  -29.9432 N   0  0  0  0  0  0  0  0  0  0  0  0
  -30.1032  -11.9562  -31.0670 C   0  0  0  0  0  0  0  0  0  0  0  0
  1  2  2  0
  1  3  1  0
  1  7  1  0
  2  4  1  0
  3  8  1  0
  4  5  2  0
  5  6  1  0
  6  7  2  0
  7  9  1  0
  8 10  1  0
  8  9  2  0
 10 11  1  0
 10 12  2  0
 12 13  1  0
 13 14  1  0
 11 14  2  0
M  END
>  <name>  (276) 
Car Nac Nd0 Car Car Car Car Car Car Car Car Car Nd0 Car

>  <indices>  (276) 
[0, 1, 2]

>  <tasks>  (276) 
probe_placing close_aromatic_ring close_aromatic_ring close_aromatic_ring close_aromatic_ring ring_built build_to_Nd0 close_aromatic_ring no_task close_aromatic_ring close_aromatic_ring close_aromatic_ring

>  <prot_clashes>  (276) 
6

>  <NBS phar>  (276) 
0.1

>  <NBS_non-phar>  (276) 
0.5332298960004535

>  <NBS>  (276) 
0.6332298960004534

>  <source_stage>  (276) 
scored

>  <source_iter>  (276) 
11

>  <source_parent_mol>  (276) 
5

>  <source_scenario>  (276) 
1 1 2 0 0 0 0 9 0 3 5

>  <source_rank_in_scored_call>  (276) 
2

>  <source_current_task>  (276) 
close_aromatic_ring

>  <scenario>  (276) 
1 1 2 0 0 0 0 9 0 3

>  <current_task>  (276) 
no_task

$$$$

     RDKit          3D

 14 16  0  0  0  0  0  0  0  0999 V2000
  -27.9820   -6.7790  -32.1010 C   0  0  0  0  0  0  0  0  0  0  0  0
  -27.5260   -5.7990  -32.8880 N   0  0  0  0  0  0  0  0  0  0  0  0
  -28.0660   -8.1110  -32.2730 N   0  0  0  0  0  0  0  0  0  0  0  0
  -27.5360   -4.4890  -32.5100 C   0  0  0  0  0  0  0  0  0  0  0  0
  -28.0280   -4.1450  -31.2690 C   0  0  0  0  0  0  0  0  0  0  0  0
  -28.5050   -5.1610  -30.4400 C   0  0  0  0  0  0  0  0  0  0  0  0
  -28.4860   -6.4900  -30.8490 C   0  0  0  0  0  0  0  0  0  0  0  0
  -28.6140   -8.6770  -31.1560 C   0  0  0  0  0  0  0  0  0  0  0  0
  -28.8820   -7.6650  -30.2500 C   0  0  0  0  0  0  0  0  0  0  0  0
  -28.9380   -9.9700  -30.7820 C   0  0  0  0  0  0  0  0  0  0  0  0
  -29.9250  -10.7750  -31.3640 C   0  0  0  0  0  0  0  0  0  0  0  0
  -28.4300  -10.7370  -29.7470 C   0  0  0  0  0  0  0  0  0  0  0  0
  -29.0480  -11.9220  -29.6840 N   0  0  0  0  0  0  0  0  0  0  0  0
  -29.9680  -11.9720  -30.6640 C   0  0  0  0  0  0  0  0  0  0  0  0
  1  2  2  0
  1  3  1  0
  1  7  1  0
  2  4  1  0
  3  8  1  0
  4  5  2  0
  5  6  1  0
  6  7  2  0
  7  9  1  0
  8 10  1  0
  8  9  2  0
 10 11  1  0
 10 12  2  0
 11 14  2  0
 12 13  1  0
 13 14  1  0
M  END
>  <name>  (277) 
Car Nac Nd0 Car Car Car Car Car Car Car Car Car Nd0 Car

>  <indices>  (277) 
[0, 1, 2]

>  <tasks>  (277) 
probe_placing close_aromatic_ring close_aromatic_ring close_aromatic_ring close_aromatic_ring ring_built build_to_Nd0 close_aromatic_ring no_task close_aromatic_ring close_aromatic_ring close_aromatic_ring

>  <prot_clashes>  (277) 
5

>  <NBS phar>  (277) 
0.12

>  <NBS_non-phar>  (277) 
0.547992433820452

>  <NBS>  (277) 
0.667992433820452

>  <source_stage>  (277) 
scored

>  <source_iter>  (277) 
11

>  <source_parent_mol>  (277) 
5

>  <source_scenario>  (277) 
1 1 2 0 0 0 0 9 0 3 5

>  <source_rank_in_scored_call>  (277) 
1

>  <source_current_task>  (277) 
close_aromatic_ring

>  <scenario>  (277) 
1 1 2 0 0 0 0 9 0 3

>  <current_task>  (277) 
no_task

$$$$

     RDKit          3D

 14 16  0  0  0  0  0  0  0  0999 V2000
  -27.9130   -6.7630  -32.0740 C   0  0  0  0  0  0  0  0  0  0  0  0
  -27.3340   -5.7700  -32.7580 N   0  0  0  0  0  0  0  0  0  0  0  0
  -27.9770   -8.0900  -32.2880 N   0  0  0  0  0  0  0  0  0  0  0  0
  -27.3940   -4.4690  -32.3550 C   0  0  0  0  0  0  0  0  0  0  0  0
  -28.0720   -4.1470  -31.1980 C   0  0  0  0  0  0  0  0  0  0  0  0
  -28.6780   -5.1770  -30.4780 C   0  0  0  0  0  0  0  0  0  0  0  0
  -28.6040   -6.4960  -30.9100 C   0  0  0  0  0  0  0  0  0  0  0  0
  -28.6960   -8.6750  -31.2840 C   0  0  0  0  0  0  0  0  0  0  0  0
  -29.0960   -7.6800  -30.4070 C   0  0  0  0  0  0  0  0  0  0  0  0
  -29.0818   -9.9721  -30.9952 C   0  0  0  0  0  0  0  0  0  0  0  0
  -29.9717  -10.7551  -31.7424 C   0  0  0  0  0  0  0  0  0  0  0  0
  -28.7475  -10.7665  -29.9118 C   0  0  0  0  0  0  0  0  0  0  0  0
  -29.3737  -11.9474  -29.9732 N   0  0  0  0  0  0  0  0  0  0  0  0
  -30.1311  -11.9665  -31.0862 C   0  0  0  0  0  0  0  0  0  0  0  0
  1  2  2  0
  1  3  1  0
  1  7  1  0
  2  4  1  0
  3  8  1  0
  4  5  2  0
  5  6  1  0
  6  7  2  0
  7  9  1  0
  8 10  1  0
  8  9  2  0
 10 11  1  0
 10 12  2  0
 12 13  1  0
 11 14  2  0
 13 14  1  0
M  END
>  <name>  (278) 
Car Nac Nd0 Car Car Car Car Car Car Car Car Car Nd0 Car

>  <indices>  (278) 
[0, 1, 2]

>  <tasks>  (278) 
probe_placing close_aromatic_ring close_aromatic_ring close_aromatic_ring close_aromatic_ring ring_built build_to_Nd0 close_aromatic_ring no_task close_aromatic_ring close_aromatic_ring close_aromatic_ring

>  <prot_clashes>  (278) 
6

>  <NBS phar>  (278) 
0.1

>  <NBS_non-phar>  (278) 
0.5325925350189209

>  <NBS>  (278) 
0.6325925350189209

>  <source_stage>  (278) 
scored

>  <source_iter>  (278) 
11

>  <source_parent_mol>  (278) 
5

>  <source_scenario>  (278) 
1 1 2 0 0 0 0 9 0 3 5

>  <source_rank_in_scored_call>  (278) 
2

>  <source_current_task>  (278) 
close_aromatic_ring

>  <scenario>  (278) 
1 1 2 0 0 0 0 9 0 3

>  <current_task>  (278) 
no_task

$$$$

     RDKit          3D

 14 16  0  0  0  0  0  0  0  0999 V2000
  -27.9670   -6.7760  -32.1030 C   0  0  0  0  0  0  0  0  0  0  0  0
  -27.5000   -5.8010  -32.8900 N   0  0  0  0  0  0  0  0  0  0  0  0
  -28.0630   -8.1070  -32.2740 N   0  0  0  0  0  0  0  0  0  0  0  0
  -27.4970   -4.4910  -32.5120 C   0  0  0  0  0  0  0  0  0  0  0  0
  -27.9890   -4.1400  -31.2730 C   0  0  0  0  0  0  0  0  0  0  0  0
  -28.4770   -5.1510  -30.4450 C   0  0  0  0  0  0  0  0  0  0  0  0
  -28.4710   -6.4800  -30.8530 C   0  0  0  0  0  0  0  0  0  0  0  0
  -28.6190   -8.6670  -31.1580 C   0  0  0  0  0  0  0  0  0  0  0  0
  -28.8790   -7.6510  -30.2530 C   0  0  0  0  0  0  0  0  0  0  0  0
  -28.9610   -9.9670  -30.7790 C   0  0  0  0  0  0  0  0  0  0  0  0
  -29.9340  -10.7650  -31.3500 C   0  0  0  0  0  0  0  0  0  0  0  0
  -28.4220  -10.6970  -29.7230 C   0  0  0  0  0  0  0  0  0  0  0  0
  -29.0650  -11.8860  -29.6800 N   0  0  0  0  0  0  0  0  0  0  0  0
  -29.9900  -11.9570  -30.6560 C   0  0  0  0  0  0  0  0  0  0  0  0
  1  2  2  0
  1  3  1  0
  1  7  1  0
  2  4  1  0
  3  8  1  0
  4  5  2  0
  5  6  1  0
  6  7  2  0
  7  9  1  0
  8 10  1  0
  8  9  2  0
 10 11  1  0
 10 12  2  0
 11 14  2  0
 12 13  1  0
 13 14  1  0
M  END
>  <name>  (279) 
Car Nac Nd0 Car Car Car Car Car Car Car Car Car Nd0 Car

>  <indices>  (279) 
[0, 1, 2]

>  <tasks>  (279) 
probe_placing close_aromatic_ring close_aromatic_ring close_aromatic_ring close_aromatic_ring ring_built build_to_Nd0 close_aromatic_ring no_task close_aromatic_ring close_aromatic_ring close_aromatic_ring

>  <prot_clashes>  (279) 
5

>  <NBS phar>  (279) 
0.12

>  <NBS_non-phar>  (279) 
0.5445889064243862

>  <NBS>  (279) 
0.6645889064243862

>  <source_stage>  (279) 
scored

>  <source_iter>  (279) 
11

>  <source_parent_mol>  (279) 
5

>  <source_scenario>  (279) 
1 1 2 0 0 0 0 9 0 3 5

>  <source_rank_in_scored_call>  (279) 
1

>  <source_current_task>  (279) 
close_aromatic_ring

>  <scenario>  (279) 
1 1 2 0 0 0 0 9 0 3

>  <current_task>  (279) 
no_task

$$$$

     RDKit          3D

 14 16  0  0  0  0  0  0  0  0999 V2000
  -27.9130   -6.7630  -32.0740 C   0  0  0  0  0  0  0  0  0  0  0  0
  -27.3340   -5.7700  -32.7580 N   0  0  0  0  0  0  0  0  0  0  0  0
  -27.9770   -8.0900  -32.2880 N   0  0  0  0  0  0  0  0  0  0  0  0
  -27.3940   -4.4690  -32.3550 C   0  0  0  0  0  0  0  0  0  0  0  0
  -28.0720   -4.1470  -31.1980 C   0  0  0  0  0  0  0  0  0  0  0  0
  -28.6780   -5.1770  -30.4780 C   0  0  0  0  0  0  0  0  0  0  0  0
  -28.6040   -6.4960  -30.9100 C   0  0  0  0  0  0  0  0  0  0  0  0
  -28.6960   -8.6750  -31.2840 C   0  0  0  0  0  0  0  0  0  0  0  0
  -29.0960   -7.6800  -30.4070 C   0  0  0  0  0  0  0  0  0  0  0  0
  -29.0877   -9.9838  -30.9923 C   0  0  0  0  0  0  0  0  0  0  0  0
  -29.9594  -10.7675  -31.7229 C   0  0  0  0  0  0  0  0  0  0  0  0
  -28.7154  -10.7378  -29.8824 C   0  0  0  0  0  0  0  0  0  0  0  0
  -29.3531  -11.9271  -29.9655 N   0  0  0  0  0  0  0  0  0  0  0  0
  -30.1164  -11.9758  -31.0725 C   0  0  0  0  0  0  0  0  0  0  0  0
  1  2  2  0
  1  3  1  0
  1  7  1  0
  2  4  1  0
  3  8  1  0
  4  5  2  0
  5  6  1  0
  6  7  2  0
  7  9  1  0
  8 10  1  0
  8  9  2  0
 10 11  1  0
 10 12  2  0
 12 13  1  0
 13 14  1  0
 11 14  2  0
M  END
>  <name>  (280) 
Car Nac Nd0 Car Car Car Car Car Car Car Car Car Nd0 Car

>  <indices>  (280) 
[0, 1, 2]

>  <tasks>  (280) 
probe_placing close_aromatic_ring close_aromatic_ring close_aromatic_ring close_aromatic_ring ring_built build_to_Nd0 close_aromatic_ring no_task close_aromatic_ring close_aromatic_ring close_aromatic_ring

>  <prot_clashes>  (280) 
6

>  <NBS phar>  (280) 
0.1

>  <NBS_non-phar>  (280) 
0.5317272458757673

>  <NBS>  (280) 
0.6317272458757672

>  <source_stage>  (280) 
scored

>  <source_iter>  (280) 
11

>  <source_parent_mol>  (280) 
5

>  <source_scenario>  (280) 
1 1 2 0 0 0 0 9 0 3 5

>  <source_rank_in_scored_call>  (280) 
2

>  <source_current_task>  (280) 
close_aromatic_ring

>  <scenario>  (280) 
1 1 2 0 0 0 0 9 0 3

>  <current_task>  (280) 
no_task

$$$$

     RDKit          3D

 14 16  0  0  0  0  0  0  0  0999 V2000
  -27.9750   -6.7830  -32.1040 C   0  0  0  0  0  0  0  0  0  0  0  0
  -27.5250   -5.7990  -32.8910 N   0  0  0  0  0  0  0  0  0  0  0  0
  -28.0600   -8.1140  -32.2810 N   0  0  0  0  0  0  0  0  0  0  0  0
  -27.5300   -4.4910  -32.5070 C   0  0  0  0  0  0  0  0  0  0  0  0
  -28.0130   -4.1520  -31.2600 C   0  0  0  0  0  0  0  0  0  0  0  0
  -28.4820   -5.1720  -30.4330 C   0  0  0  0  0  0  0  0  0  0  0  0
  -28.4680   -6.4980  -30.8470 C   0  0  0  0  0  0  0  0  0  0  0  0
  -28.5990   -8.6840  -31.1620 C   0  0  0  0  0  0  0  0  0  0  0  0
  -28.8590   -7.6750  -30.2490 C   0  0  0  0  0  0  0  0  0  0  0  0
  -28.9340  -10.0200  -30.7770 C   0  0  0  0  0  0  0  0  0  0  0  0
  -29.9180  -10.7770  -31.3820 C   0  0  0  0  0  0  0  0  0  0  0  0
  -28.3620  -10.7190  -29.7330 C   0  0  0  0  0  0  0  0  0  0  0  0
  -28.9910  -11.9170  -29.6850 N   0  0  0  0  0  0  0  0  0  0  0  0
  -29.9220  -11.9740  -30.6580 C   0  0  0  0  0  0  0  0  0  0  0  0
  1  2  2  0
  1  3  1  0
  1  7  1  0
  2  4  1  0
  3  8  1  0
  4  5  2  0
  5  6  1  0
  6  7  2  0
  7  9  1  0
  8 10  1  0
  8  9  2  0
 10 11  1  0
 10 12  2  0
 11 14  2  0
 12 13  1  0
 13 14  1  0
M  END
>  <name>  (281) 
Car Nac Nd0 Car Car Car Car Car Car Car Car Car Nd0 Car

>  <indices>  (281) 
[0, 1, 2]

>  <tasks>  (281) 
probe_placing close_aromatic_ring close_aromatic_ring close_aromatic_ring close_aromatic_ring ring_built build_to_Nd0 close_aromatic_ring no_task close_aromatic_ring close_aromatic_ring close_aromatic_ring

>  <prot_clashes>  (281) 
4

>  <NBS phar>  (281) 
0.12

>  <NBS_non-phar>  (281) 
0.5595241955348423

>  <NBS>  (281) 
0.6795241955348423

>  <source_stage>  (281) 
scored

>  <source_iter>  (281) 
11

>  <source_parent_mol>  (281) 
5

>  <source_scenario>  (281) 
1 1 2 0 0 0 0 9 0 3 5

>  <source_rank_in_scored_call>  (281) 
0

>  <source_current_task>  (281) 
close_aromatic_ring

>  <scenario>  (281) 
1 1 2 0 0 0 0 9 0 3

>  <current_task>  (281) 
no_task

$$$$

     RDKit          3D

 14 16  0  0  0  0  0  0  0  0999 V2000
  -27.9130   -6.7630  -32.0740 C   0  0  0  0  0  0  0  0  0  0  0  0
  -27.3340   -5.7700  -32.7580 N   0  0  0  0  0  0  0  0  0  0  0  0
  -27.9770   -8.0900  -32.2880 N   0  0  0  0  0  0  0  0  0  0  0  0
  -27.3940   -4.4690  -32.3550 C   0  0  0  0  0  0  0  0  0  0  0  0
  -28.0720   -4.1470  -31.1980 C   0  0  0  0  0  0  0  0  0  0  0  0
  -28.6780   -5.1770  -30.4780 C   0  0  0  0  0  0  0  0  0  0  0  0
  -28.6040   -6.4960  -30.9100 C   0  0  0  0  0  0  0  0  0  0  0  0
  -28.6960   -8.6750  -31.2840 C   0  0  0  0  0  0  0  0  0  0  0  0
  -29.0960   -7.6800  -30.4070 C   0  0  0  0  0  0  0  0  0  0  0  0
  -29.0975  -10.0143  -30.9844 C   0  0  0  0  0  0  0  0  0  0  0  0
  -29.9741  -10.7508  -31.7569 C   0  0  0  0  0  0  0  0  0  0  0  0
  -28.7096  -10.7370  -29.8743 C   0  0  0  0  0  0  0  0  0  0  0  0
  -29.3462  -11.9296  -29.9535 N   0  0  0  0  0  0  0  0  0  0  0  0
  -30.1047  -11.9601  -31.0664 C   0  0  0  0  0  0  0  0  0  0  0  0
  1  2  2  0
  1  3  1  0
  1  7  1  0
  2  4  1  0
  3  8  1  0
  4  5  2  0
  5  6  1  0
  6  7  2  0
  7  9  1  0
  8 10  1  0
  8  9  2  0
 10 11  1  0
 10 12  2  0
 12 13  1  0
 13 14  1  0
 11 14  2  0
M  END
>  <name>  (282) 
Car Nac Nd0 Car Car Car Car Car Car Car Car Car Nd0 Car

>  <indices>  (282) 
[0, 1, 2]

>  <tasks>  (282) 
probe_placing close_aromatic_ring close_aromatic_ring close_aromatic_ring close_aromatic_ring ring_built build_to_Nd0 close_aromatic_ring no_task close_aromatic_ring close_aromatic_ring close_aromatic_ring

>  <prot_clashes>  (282) 
6

>  <NBS phar>  (282) 
0.1

>  <NBS_non-phar>  (282) 
0.5321060929979596

>  <NBS>  (282) 
0.6321060929979596

>  <source_stage>  (282) 
scored

>  <source_iter>  (282) 
11

>  <source_parent_mol>  (282) 
5

>  <source_scenario>  (282) 
1 1 2 0 0 0 0 9 0 3 5

>  <source_rank_in_scored_call>  (282) 
2

>  <source_current_task>  (282) 
close_aromatic_ring

>  <scenario>  (282) 
1 1 2 0 0 0 0 9 0 3

>  <current_task>  (282) 
no_task

$$$$

     RDKit          3D

 14 16  0  0  0  0  0  0  0  0999 V2000
  -27.9730   -6.7840  -32.1060 C   0  0  0  0  0  0  0  0  0  0  0  0
  -27.5180   -5.8030  -32.8920 N   0  0  0  0  0  0  0  0  0  0  0  0
  -28.0630   -8.1150  -32.2830 N   0  0  0  0  0  0  0  0  0  0  0  0
  -27.5190   -4.4950  -32.5080 C   0  0  0  0  0  0  0  0  0  0  0  0
  -28.0030   -4.1530  -31.2620 C   0  0  0  0  0  0  0  0  0  0  0  0
  -28.4780   -5.1710  -30.4350 C   0  0  0  0  0  0  0  0  0  0  0  0
  -28.4670   -6.4980  -30.8500 C   0  0  0  0  0  0  0  0  0  0  0  0
  -28.6060   -8.6840  -31.1650 C   0  0  0  0  0  0  0  0  0  0  0  0
  -28.8640   -7.6740  -30.2530 C   0  0  0  0  0  0  0  0  0  0  0  0
  -28.9470  -10.0020  -30.7940 C   0  0  0  0  0  0  0  0  0  0  0  0
  -29.9320  -10.7670  -31.3840 C   0  0  0  0  0  0  0  0  0  0  0  0
  -28.4240  -10.7520  -29.7660 C   0  0  0  0  0  0  0  0  0  0  0  0
  -29.0360  -11.9390  -29.6930 N   0  0  0  0  0  0  0  0  0  0  0  0
  -29.9550  -11.9490  -30.6770 C   0  0  0  0  0  0  0  0  0  0  0  0
  1  2  2  0
  1  3  1  0
  1  7  1  0
  2  4  1  0
  3  8  1  0
  4  5  2  0
  5  6  1  0
  6  7  2  0
  7  9  1  0
  8 10  1  0
  8  9  2  0
 10 11  1  0
 10 12  2  0
 11 14  2  0
 12 13  1  0
 13 14  1  0
M  END
>  <name>  (283) 
Car Nac Nd0 Car Car Car Car Car Car Car Car Car Nd0 Car

>  <indices>  (283) 
[0, 1, 2]

>  <tasks>  (283) 
probe_placing close_aromatic_ring close_aromatic_ring close_aromatic_ring close_aromatic_ring ring_built build_to_Nd0 close_aromatic_ring no_task close_aromatic_ring close_aromatic_ring close_aromatic_ring

>  <prot_clashes>  (283) 
4

>  <NBS phar>  (283) 
0.12

>  <NBS_non-phar>  (283) 
0.5415323461805072

>  <NBS>  (283) 
0.6615323461805072

>  <source_stage>  (283) 
scored

>  <source_iter>  (283) 
11

>  <source_parent_mol>  (283) 
5

>  <source_scenario>  (283) 
1 1 2 0 0 0 0 9 0 3 5

>  <source_rank_in_scored_call>  (283) 
1

>  <source_current_task>  (283) 
close_aromatic_ring

>  <scenario>  (283) 
1 1 2 0 0 0 0 9 0 3

>  <current_task>  (283) 
no_task

$$$$

     RDKit          3D

 14 16  0  0  0  0  0  0  0  0999 V2000
  -27.9130   -6.7630  -32.0740 C   0  0  0  0  0  0  0  0  0  0  0  0
  -27.3340   -5.7700  -32.7580 N   0  0  0  0  0  0  0  0  0  0  0  0
  -27.9770   -8.0900  -32.2880 N   0  0  0  0  0  0  0  0  0  0  0  0
  -27.3940   -4.4690  -32.3550 C   0  0  0  0  0  0  0  0  0  0  0  0
  -28.0720   -4.1470  -31.1980 C   0  0  0  0  0  0  0  0  0  0  0  0
  -28.6780   -5.1770  -30.4780 C   0  0  0  0  0  0  0  0  0  0  0  0
  -28.6040   -6.4960  -30.9100 C   0  0  0  0  0  0  0  0  0  0  0  0
  -28.6960   -8.6750  -31.2840 C   0  0  0  0  0  0  0  0  0  0  0  0
  -29.0960   -7.6800  -30.4070 C   0  0  0  0  0  0  0  0  0  0  0  0
  -29.0967   -9.9978  -30.9984 C   0  0  0  0  0  0  0  0  0  0  0  0
  -29.9747  -10.7458  -31.7536 C   0  0  0  0  0  0  0  0  0  0  0  0
  -28.7494  -10.7692  -29.9127 C   0  0  0  0  0  0  0  0  0  0  0  0
  -29.3694  -11.9539  -29.9619 N   0  0  0  0  0  0  0  0  0  0  0  0
  -30.1156  -11.9409  -31.0822 C   0  0  0  0  0  0  0  0  0  0  0  0
  1  2  2  0
  1  3  1  0
  1  7  1  0
  2  4  1  0
  3  8  1  0
  4  5  2  0
  5  6  1  0
  6  7  2  0
  7  9  1  0
  8 10  1  0
  8  9  2  0
 10 11  1  0
 10 12  2  0
 12 13  1  0
 11 14  2  0
 13 14  1  0
M  END
>  <name>  (284) 
Car Nac Nd0 Car Car Car Car Car Car Car Car Car Nd0 Car

>  <indices>  (284) 
[0, 1, 2]

>  <tasks>  (284) 
probe_placing close_aromatic_ring close_aromatic_ring close_aromatic_ring close_aromatic_ring ring_built build_to_Nd0 close_aromatic_ring no_task close_aromatic_ring close_aromatic_ring close_aromatic_ring

>  <prot_clashes>  (284) 
6

>  <NBS phar>  (284) 
0.1

>  <NBS_non-phar>  (284) 
0.5333039079393659

>  <NBS>  (284) 
0.6333039079393659

>  <source_stage>  (284) 
scored

>  <source_iter>  (284) 
11

>  <source_parent_mol>  (284) 
5

>  <source_scenario>  (284) 
1 1 2 0 0 0 0 9 0 3 5

>  <source_rank_in_scored_call>  (284) 
2

>  <source_current_task>  (284) 
close_aromatic_ring

>  <scenario>  (284) 
1 1 2 0 0 0 0 9 0 3

>  <current_task>  (284) 
no_task

$$$$

     RDKit          3D

 14 16  0  0  0  0  0  0  0  0999 V2000
  -27.9700   -6.7790  -32.1080 C   0  0  0  0  0  0  0  0  0  0  0  0
  -27.5120   -5.7970  -32.8920 N   0  0  0  0  0  0  0  0  0  0  0  0
  -28.0610   -8.1100  -32.2880 N   0  0  0  0  0  0  0  0  0  0  0  0
  -27.5130   -4.4890  -32.5050 C   0  0  0  0  0  0  0  0  0  0  0  0
  -27.9980   -4.1490  -31.2600 C   0  0  0  0  0  0  0  0  0  0  0  0
  -28.4770   -5.1680  -30.4360 C   0  0  0  0  0  0  0  0  0  0  0  0
  -28.4670   -6.4940  -30.8530 C   0  0  0  0  0  0  0  0  0  0  0  0
  -28.6080   -8.6790  -31.1720 C   0  0  0  0  0  0  0  0  0  0  0  0
  -28.8670   -7.6710  -30.2590 C   0  0  0  0  0  0  0  0  0  0  0  0
  -28.9470   -9.9880  -30.8050 C   0  0  0  0  0  0  0  0  0  0  0  0
  -29.9270  -10.7730  -31.3870 C   0  0  0  0  0  0  0  0  0  0  0  0
  -28.3900  -10.7190  -29.7480 C   0  0  0  0  0  0  0  0  0  0  0  0
  -29.0290  -11.9250  -29.7010 N   0  0  0  0  0  0  0  0  0  0  0  0
  -29.9530  -11.9680  -30.6810 C   0  0  0  0  0  0  0  0  0  0  0  0
  1  2  2  0
  1  3  1  0
  1  7  1  0
  2  4  1  0
  3  8  1  0
  4  5  2  0
  5  6  1  0
  6  7  2  0
  7  9  1  0
  8 10  1  0
  8  9  2  0
 10 11  1  0
 10 12  2  0
 11 14  2  0
 12 13  1  0
 13 14  1  0
M  END
>  <name>  (285) 
Car Nac Nd0 Car Car Car Car Car Car Car Car Car Nd0 Car

>  <indices>  (285) 
[0, 1, 2]

>  <tasks>  (285) 
probe_placing close_aromatic_ring close_aromatic_ring close_aromatic_ring close_aromatic_ring ring_built build_to_Nd0 close_aromatic_ring no_task close_aromatic_ring close_aromatic_ring close_aromatic_ring

>  <prot_clashes>  (285) 
4

>  <NBS phar>  (285) 
0.12

>  <NBS_non-phar>  (285) 
0.5374526636941093

>  <NBS>  (285) 
0.6574526636941093

>  <source_stage>  (285) 
scored

>  <source_iter>  (285) 
11

>  <source_parent_mol>  (285) 
5

>  <source_scenario>  (285) 
1 1 2 0 0 0 0 9 0 3 5

>  <source_rank_in_scored_call>  (285) 
1

>  <source_current_task>  (285) 
close_aromatic_ring

>  <scenario>  (285) 
1 1 2 0 0 0 0 9 0 3

>  <current_task>  (285) 
no_task

$$$$

     RDKit          3D

 14 16  0  0  0  0  0  0  0  0999 V2000
  -27.9130   -6.7630  -32.0740 C   0  0  0  0  0  0  0  0  0  0  0  0
  -27.3340   -5.7700  -32.7580 N   0  0  0  0  0  0  0  0  0  0  0  0
  -27.9770   -8.0900  -32.2880 N   0  0  0  0  0  0  0  0  0  0  0  0
  -27.3940   -4.4690  -32.3550 C   0  0  0  0  0  0  0  0  0  0  0  0
  -28.0720   -4.1470  -31.1980 C   0  0  0  0  0  0  0  0  0  0  0  0
  -28.6780   -5.1770  -30.4780 C   0  0  0  0  0  0  0  0  0  0  0  0
  -28.6040   -6.4960  -30.9100 C   0  0  0  0  0  0  0  0  0  0  0  0
  -28.6960   -8.6750  -31.2840 C   0  0  0  0  0  0  0  0  0  0  0  0
  -29.0960   -7.6800  -30.4070 C   0  0  0  0  0  0  0  0  0  0  0  0
  -29.0924   -9.9877  -30.9965 C   0  0  0  0  0  0  0  0  0  0  0  0
  -29.9673  -10.7591  -31.7409 C   0  0  0  0  0  0  0  0  0  0  0  0
  -28.7120  -10.7382  -29.8771 C   0  0  0  0  0  0  0  0  0  0  0  0
  -29.3522  -11.9420  -29.9532 N   0  0  0  0  0  0  0  0  0  0  0  0
  -30.1081  -11.9649  -31.0679 C   0  0  0  0  0  0  0  0  0  0  0  0
  1  2  2  0
  1  3  1  0
  1  7  1  0
  2  4  1  0
  3  8  1  0
  4  5  2  0
  5  6  1  0
  6  7  2  0
  7  9  1  0
  8 10  1  0
  8  9  2  0
 10 11  1  0
 10 12  2  0
 12 13  1  0
 13 14  1  0
 11 14  2  0
M  END
>  <name>  (286) 
Car Nac Nd0 Car Car Car Car Car Car Car Car Car Nd0 Car

>  <indices>  (286) 
[0, 1, 2]

>  <tasks>  (286) 
probe_placing close_aromatic_ring close_aromatic_ring close_aromatic_ring close_aromatic_ring ring_built build_to_Nd0 close_aromatic_ring no_task close_aromatic_ring close_aromatic_ring close_aromatic_ring

>  <prot_clashes>  (286) 
6

>  <NBS phar>  (286) 
0.1

>  <NBS_non-phar>  (286) 
0.5325965200151715

>  <NBS>  (286) 
0.6325965200151715

>  <source_stage>  (286) 
scored

>  <source_iter>  (286) 
11

>  <source_parent_mol>  (286) 
5

>  <source_scenario>  (286) 
1 1 2 0 0 0 0 9 0 3 5

>  <source_rank_in_scored_call>  (286) 
2

>  <source_current_task>  (286) 
close_aromatic_ring

>  <scenario>  (286) 
1 1 2 0 0 0 0 9 0 3

>  <current_task>  (286) 
no_task

$$$$

     RDKit          3D

 14 16  0  0  0  0  0  0  0  0999 V2000
  -27.9990   -6.8000  -32.1040 C   0  0  0  0  0  0  0  0  0  0  0  0
  -27.5630   -5.8090  -32.8890 N   0  0  0  0  0  0  0  0  0  0  0  0
  -28.0710   -8.1320  -32.2860 N   0  0  0  0  0  0  0  0  0  0  0  0
  -27.5820   -4.5030  -32.5000 C   0  0  0  0  0  0  0  0  0  0  0  0
  -28.0630   -4.1730  -31.2500 C   0  0  0  0  0  0  0  0  0  0  0  0
  -28.5190   -5.2010  -30.4250 C   0  0  0  0  0  0  0  0  0  0  0  0
  -28.4910   -6.5260  -30.8440 C   0  0  0  0  0  0  0  0  0  0  0  0
  -28.6000   -8.7120  -31.1680 C   0  0  0  0  0  0  0  0  0  0  0  0
  -28.8680   -7.7100  -30.2500 C   0  0  0  0  0  0  0  0  0  0  0  0
  -28.9050  -10.0150  -30.7980 C   0  0  0  0  0  0  0  0  0  0  0  0
  -29.8930  -10.8160  -31.3820 C   0  0  0  0  0  0  0  0  0  0  0  0
  -28.3740  -10.7750  -29.7750 C   0  0  0  0  0  0  0  0  0  0  0  0
  -28.9770  -11.9750  -29.7100 N   0  0  0  0  0  0  0  0  0  0  0  0
  -29.9230  -12.0320  -30.6920 C   0  0  0  0  0  0  0  0  0  0  0  0
  1  2  2  0
  1  3  1  0
  1  7  1  0
  2  4  1  0
  3  8  1  0
  4  5  2  0
  5  6  1  0
  6  7  2  0
  7  9  1  0
  8 10  1  0
  8  9  2  0
 10 11  1  0
 10 12  2  0
 11 14  2  0
 12 13  1  0
 13 14  1  0
M  END
>  <name>  (287) 
Car Nac Nd0 Car Car Car Car Car Car Car Car Car Nd0 Car

>  <indices>  (287) 
[0, 1, 2]

>  <tasks>  (287) 
probe_placing close_aromatic_ring close_aromatic_ring close_aromatic_ring close_aromatic_ring ring_built build_to_Nd0 close_aromatic_ring no_task close_aromatic_ring close_aromatic_ring close_aromatic_ring

>  <prot_clashes>  (287) 
3

>  <NBS phar>  (287) 
0.12

>  <NBS_non-phar>  (287) 
0.5508269582475934

>  <NBS>  (287) 
0.6708269582475934

>  <source_stage>  (287) 
scored

>  <source_iter>  (287) 
11

>  <source_parent_mol>  (287) 
5

>  <source_scenario>  (287) 
1 1 2 0 0 0 0 9 0 3 5

>  <source_rank_in_scored_call>  (287) 
0

>  <source_current_task>  (287) 
close_aromatic_ring

>  <scenario>  (287) 
1 1 2 0 0 0 0 9 0 3

>  <current_task>  (287) 
no_task

$$$$

     RDKit          3D

 14 16  0  0  0  0  0  0  0  0999 V2000
  -27.9130   -6.7630  -32.0740 C   0  0  0  0  0  0  0  0  0  0  0  0
  -27.3340   -5.7700  -32.7580 N   0  0  0  0  0  0  0  0  0  0  0  0
  -27.9770   -8.0900  -32.2880 N   0  0  0  0  0  0  0  0  0  0  0  0
  -27.3940   -4.4690  -32.3550 C   0  0  0  0  0  0  0  0  0  0  0  0
  -28.0720   -4.1470  -31.1980 C   0  0  0  0  0  0  0  0  0  0  0  0
  -28.6780   -5.1770  -30.4780 C   0  0  0  0  0  0  0  0  0  0  0  0
  -28.6040   -6.4960  -30.9100 C   0  0  0  0  0  0  0  0  0  0  0  0
  -28.6960   -8.6750  -31.2840 C   0  0  0  0  0  0  0  0  0  0  0  0
  -29.0960   -7.6800  -30.4070 C   0  0  0  0  0  0  0  0  0  0  0  0
  -29.0824   -9.9757  -30.9934 C   0  0  0  0  0  0  0  0  0  0  0  0
  -29.9720  -10.7486  -31.7475 C   0  0  0  0  0  0  0  0  0  0  0  0
  -28.7428  -10.7605  -29.9094 C   0  0  0  0  0  0  0  0  0  0  0  0
  -29.3698  -11.9494  -29.9659 N   0  0  0  0  0  0  0  0  0  0  0  0
  -30.1387  -11.9734  -31.0926 C   0  0  0  0  0  0  0  0  0  0  0  0
  1  2  2  0
  1  3  1  0
  1  7  1  0
  2  4  1  0
  3  8  1  0
  4  5  2  0
  5  6  1  0
  6  7  2  0
  7  9  1  0
  8 10  1  0
  8  9  2  0
 10 11  1  0
 10 12  2  0
 12 13  1  0
 11 14  2  0
 13 14  1  0
M  END
>  <name>  (288) 
Car Nac Nd0 Car Car Car Car Car Car Car Car Car Nd0 Car

>  <indices>  (288) 
[0, 1, 2]

>  <tasks>  (288) 
probe_placing close_aromatic_ring close_aromatic_ring close_aromatic_ring close_aromatic_ring ring_built build_to_Nd0 close_aromatic_ring no_task close_aromatic_ring close_aromatic_ring close_aromatic_ring

>  <prot_clashes>  (288) 
6

>  <NBS phar>  (288) 
0.1

>  <NBS_non-phar>  (288) 
0.5326481887272426

>  <NBS>  (288) 
0.6326481887272426

>  <source_stage>  (288) 
scored

>  <source_iter>  (288) 
11

>  <source_parent_mol>  (288) 
5

>  <source_scenario>  (288) 
1 1 2 0 0 0 0 9 0 3 5

>  <source_rank_in_scored_call>  (288) 
2

>  <source_current_task>  (288) 
close_aromatic_ring

>  <scenario>  (288) 
1 1 2 0 0 0 0 9 0 3

>  <current_task>  (288) 
no_task

$$$$

     RDKit          3D

 14 16  0  0  0  0  0  0  0  0999 V2000
  -27.9740   -6.7830  -32.1000 C   0  0  0  0  0  0  0  0  0  0  0  0
  -27.5270   -5.7990  -32.8890 N   0  0  0  0  0  0  0  0  0  0  0  0
  -28.0660   -8.1130  -32.2790 N   0  0  0  0  0  0  0  0  0  0  0  0
  -27.5230   -4.4920  -32.5020 C   0  0  0  0  0  0  0  0  0  0  0  0
  -27.9930   -4.1530  -31.2500 C   0  0  0  0  0  0  0  0  0  0  0  0
  -28.4610   -5.1730  -30.4210 C   0  0  0  0  0  0  0  0  0  0  0  0
  -28.4550   -6.4990  -30.8380 C   0  0  0  0  0  0  0  0  0  0  0  0
  -28.5980   -8.6840  -31.1570 C   0  0  0  0  0  0  0  0  0  0  0  0
  -28.8470   -7.6760  -30.2400 C   0  0  0  0  0  0  0  0  0  0  0  0
  -28.9420  -10.0170  -30.7840 C   0  0  0  0  0  0  0  0  0  0  0  0
  -29.9370  -10.7710  -31.3740 C   0  0  0  0  0  0  0  0  0  0  0  0
  -28.3670  -10.7430  -29.7340 C   0  0  0  0  0  0  0  0  0  0  0  0
  -29.0250  -11.9260  -29.7070 N   0  0  0  0  0  0  0  0  0  0  0  0
  -29.9570  -11.9600  -30.6700 C   0  0  0  0  0  0  0  0  0  0  0  0
  1  2  2  0
  1  3  1  0
  1  7  1  0
  2  4  1  0
  3  8  1  0
  4  5  2  0
  5  6  1  0
  6  7  2  0
  7  9  1  0
  8 10  1  0
  8  9  2  0
 10 11  1  0
 10 12  2  0
 11 14  2  0
 12 13  1  0
 13 14  1  0
M  END
>  <name>  (289) 
Car Nac Nd0 Car Car Car Car Car Car Car Car Car Nd0 Car

>  <indices>  (289) 
[0, 1, 2]

>  <tasks>  (289) 
probe_placing close_aromatic_ring close_aromatic_ring close_aromatic_ring close_aromatic_ring ring_built build_to_Nd0 close_aromatic_ring no_task close_aromatic_ring close_aromatic_ring close_aromatic_ring

>  <prot_clashes>  (289) 
4

>  <NBS phar>  (289) 
0.12

>  <NBS_non-phar>  (289) 
0.5431783199310303

>  <NBS>  (289) 
0.6631783199310303

>  <source_stage>  (289) 
scored

>  <source_iter>  (289) 
11

>  <source_parent_mol>  (289) 
5

>  <source_scenario>  (289) 
1 1 2 0 0 0 0 9 0 3 5

>  <source_rank_in_scored_call>  (289) 
1

>  <source_current_task>  (289) 
close_aromatic_ring

>  <scenario>  (289) 
1 1 2 0 0 0 0 9 0 3

>  <current_task>  (289) 
no_task

$$$$

     RDKit          3D

 14 16  0  0  0  0  0  0  0  0999 V2000
  -27.9130   -6.7630  -32.0740 C   0  0  0  0  0  0  0  0  0  0  0  0
  -27.3340   -5.7700  -32.7580 N   0  0  0  0  0  0  0  0  0  0  0  0
  -27.9770   -8.0900  -32.2880 N   0  0  0  0  0  0  0  0  0  0  0  0
  -27.3940   -4.4690  -32.3550 C   0  0  0  0  0  0  0  0  0  0  0  0
  -28.0720   -4.1470  -31.1980 C   0  0  0  0  0  0  0  0  0  0  0  0
  -28.6780   -5.1770  -30.4780 C   0  0  0  0  0  0  0  0  0  0  0  0
  -28.6040   -6.4960  -30.9100 C   0  0  0  0  0  0  0  0  0  0  0  0
  -28.6960   -8.6750  -31.2840 C   0  0  0  0  0  0  0  0  0  0  0  0
  -29.0960   -7.6800  -30.4070 C   0  0  0  0  0  0  0  0  0  0  0  0
  -29.1031  -10.0121  -30.9974 C   0  0  0  0  0  0  0  0  0  0  0  0
  -29.9826  -10.7509  -31.7617 C   0  0  0  0  0  0  0  0  0  0  0  0
  -28.7186  -10.7565  -29.8762 C   0  0  0  0  0  0  0  0  0  0  0  0
  -29.3748  -11.9372  -29.9822 N   0  0  0  0  0  0  0  0  0  0  0  0
  -30.1266  -11.9510  -31.0912 C   0  0  0  0  0  0  0  0  0  0  0  0
  1  2  2  0
  1  3  1  0
  1  7  1  0
  2  4  1  0
  3  8  1  0
  4  5  2  0
  5  6  1  0
  6  7  2  0
  7  9  1  0
  8 10  1  0
  8  9  2  0
 10 11  1  0
 10 12  2  0
 12 13  1  0
 11 14  2  0
 13 14  1  0
M  END
>  <name>  (290) 
Car Nac Nd0 Car Car Car Car Car Car Car Car Car Nd0 Car

>  <indices>  (290) 
[0, 1, 2]

>  <tasks>  (290) 
probe_placing close_aromatic_ring close_aromatic_ring close_aromatic_ring close_aromatic_ring ring_built build_to_Nd0 close_aromatic_ring no_task close_aromatic_ring close_aromatic_ring close_aromatic_ring

>  <prot_clashes>  (290) 
6

>  <NBS phar>  (290) 
0.1

>  <NBS_non-phar>  (290) 
0.5315399851117816

>  <NBS>  (290) 
0.6315399851117816

>  <source_stage>  (290) 
scored

>  <source_iter>  (290) 
11

>  <source_parent_mol>  (290) 
5

>  <source_scenario>  (290) 
1 1 2 0 0 0 0 9 0 3 5

>  <source_rank_in_scored_call>  (290) 
2

>  <source_current_task>  (290) 
close_aromatic_ring

>  <scenario>  (290) 
1 1 2 0 0 0 0 9 0 3

>  <current_task>  (290) 
no_task

$$$$

     RDKit          3D

 14 16  0  0  0  0  0  0  0  0999 V2000
  -27.9760   -6.7780  -32.1030 C   0  0  0  0  0  0  0  0  0  0  0  0
  -27.5150   -5.7980  -32.8880 N   0  0  0  0  0  0  0  0  0  0  0  0
  -28.0620   -8.1100  -32.2770 N   0  0  0  0  0  0  0  0  0  0  0  0
  -27.5230   -4.4890  -32.5090 C   0  0  0  0  0  0  0  0  0  0  0  0
  -28.0180   -4.1440  -31.2690 C   0  0  0  0  0  0  0  0  0  0  0  0
  -28.5000   -5.1600  -30.4430 C   0  0  0  0  0  0  0  0  0  0  0  0
  -28.4830   -6.4880  -30.8530 C   0  0  0  0  0  0  0  0  0  0  0  0
  -28.6150   -8.6750  -31.1620 C   0  0  0  0  0  0  0  0  0  0  0  0
  -28.8840   -7.6630  -30.2560 C   0  0  0  0  0  0  0  0  0  0  0  0
  -28.9490   -9.9820  -30.7870 C   0  0  0  0  0  0  0  0  0  0  0  0
  -29.9210  -10.7730  -31.3640 C   0  0  0  0  0  0  0  0  0  0  0  0
  -28.4280  -10.7230  -29.7470 C   0  0  0  0  0  0  0  0  0  0  0  0
  -29.0670  -11.9060  -29.7090 N   0  0  0  0  0  0  0  0  0  0  0  0
  -29.9920  -11.9760  -30.6870 C   0  0  0  0  0  0  0  0  0  0  0  0
  1  2  2  0
  1  3  1  0
  1  7  1  0
  2  4  1  0
  3  8  1  0
  4  5  2  0
  5  6  1  0
  6  7  2  0
  7  9  1  0
  8 10  1  0
  8  9  2  0
 10 11  1  0
 10 12  2  0
 11 14  2  0
 12 13  1  0
 13 14  1  0
M  END
>  <name>  (291) 
Car Nac Nd0 Car Car Car Car Car Car Car Car Car Nd0 Car

>  <indices>  (291) 
[0, 1, 2]

>  <tasks>  (291) 
probe_placing close_aromatic_ring close_aromatic_ring close_aromatic_ring close_aromatic_ring ring_built build_to_Nd0 close_aromatic_ring no_task close_aromatic_ring close_aromatic_ring close_aromatic_ring

>  <prot_clashes>  (291) 
5

>  <NBS phar>  (291) 
0.12

>  <NBS_non-phar>  (291) 
0.5355900015149798

>  <NBS>  (291) 
0.6555900015149798

>  <source_stage>  (291) 
scored

>  <source_iter>  (291) 
11

>  <source_parent_mol>  (291) 
5

>  <source_scenario>  (291) 
1 1 2 0 0 0 0 9 0 3 5

>  <source_rank_in_scored_call>  (291) 
1

>  <source_current_task>  (291) 
close_aromatic_ring

>  <scenario>  (291) 
1 1 2 0 0 0 0 9 0 3

>  <current_task>  (291) 
no_task

$$$$

     RDKit          3D

 14 16  0  0  0  0  0  0  0  0999 V2000
  -27.9130   -6.7630  -32.0740 C   0  0  0  0  0  0  0  0  0  0  0  0
  -27.3340   -5.7700  -32.7580 N   0  0  0  0  0  0  0  0  0  0  0  0
  -27.9770   -8.0900  -32.2880 N   0  0  0  0  0  0  0  0  0  0  0  0
  -27.3940   -4.4690  -32.3550 C   0  0  0  0  0  0  0  0  0  0  0  0
  -28.0720   -4.1470  -31.1980 C   0  0  0  0  0  0  0  0  0  0  0  0
  -28.6780   -5.1770  -30.4780 C   0  0  0  0  0  0  0  0  0  0  0  0
  -28.6040   -6.4960  -30.9100 C   0  0  0  0  0  0  0  0  0  0  0  0
  -28.6960   -8.6750  -31.2840 C   0  0  0  0  0  0  0  0  0  0  0  0
  -29.0960   -7.6800  -30.4070 C   0  0  0  0  0  0  0  0  0  0  0  0
  -29.0876   -9.9869  -30.9930 C   0  0  0  0  0  0  0  0  0  0  0  0
  -29.9644  -10.7590  -31.7287 C   0  0  0  0  0  0  0  0  0  0  0  0
  -28.7347  -10.7539  -29.9021 C   0  0  0  0  0  0  0  0  0  0  0  0
  -29.3768  -11.9331  -29.9882 N   0  0  0  0  0  0  0  0  0  0  0  0
  -30.1422  -11.9747  -31.0968 C   0  0  0  0  0  0  0  0  0  0  0  0
  1  2  2  0
  1  3  1  0
  1  7  1  0
  2  4  1  0
  3  8  1  0
  4  5  2  0
  5  6  1  0
  6  7  2  0
  7  9  1  0
  8 10  1  0
  8  9  2  0
 10 11  1  0
 10 12  2  0
 12 13  1  0
 11 14  2  0
 13 14  1  0
M  END
>  <name>  (292) 
Car Nac Nd0 Car Car Car Car Car Car Car Car Car Nd0 Car

>  <indices>  (292) 
[0, 1, 2]

>  <tasks>  (292) 
probe_placing close_aromatic_ring close_aromatic_ring close_aromatic_ring close_aromatic_ring ring_built build_to_Nd0 close_aromatic_ring no_task close_aromatic_ring close_aromatic_ring close_aromatic_ring

>  <prot_clashes>  (292) 
6

>  <NBS phar>  (292) 
0.1

>  <NBS_non-phar>  (292) 
0.5312439032963344

>  <NBS>  (292) 
0.6312439032963344

>  <source_stage>  (292) 
scored

>  <source_iter>  (292) 
11

>  <source_parent_mol>  (292) 
5

>  <source_scenario>  (292) 
1 1 2 0 0 0 0 9 0 3 5

>  <source_rank_in_scored_call>  (292) 
2

>  <source_current_task>  (292) 
close_aromatic_ring

>  <scenario>  (292) 
1 1 2 0 0 0 0 9 0 3

>  <current_task>  (292) 
no_task

$$$$

     RDKit          3D

 14 16  0  0  0  0  0  0  0  0999 V2000
  -27.9750   -6.7750  -32.1020 C   0  0  0  0  0  0  0  0  0  0  0  0
  -27.5220   -5.7920  -32.8870 N   0  0  0  0  0  0  0  0  0  0  0  0
  -28.0610   -8.1060  -32.2780 N   0  0  0  0  0  0  0  0  0  0  0  0
  -27.5280   -4.4840  -32.5040 C   0  0  0  0  0  0  0  0  0  0  0  0
  -28.0150   -4.1440  -31.2590 C   0  0  0  0  0  0  0  0  0  0  0  0
  -28.4880   -5.1630  -30.4320 C   0  0  0  0  0  0  0  0  0  0  0  0
  -28.4730   -6.4900  -30.8470 C   0  0  0  0  0  0  0  0  0  0  0  0
  -28.6040   -8.6760  -31.1620 C   0  0  0  0  0  0  0  0  0  0  0  0
  -28.8670   -7.6670  -30.2500 C   0  0  0  0  0  0  0  0  0  0  0  0
  -28.9420  -10.0090  -30.7830 C   0  0  0  0  0  0  0  0  0  0  0  0
  -29.9240  -10.7690  -31.3800 C   0  0  0  0  0  0  0  0  0  0  0  0
  -28.3900  -10.7270  -29.7430 C   0  0  0  0  0  0  0  0  0  0  0  0
  -29.0310  -11.9110  -29.7070 N   0  0  0  0  0  0  0  0  0  0  0  0
  -29.9660  -11.9650  -30.6880 C   0  0  0  0  0  0  0  0  0  0  0  0
  1  2  2  0
  1  3  1  0
  1  7  1  0
  2  4  1  0
  3  8  1  0
  4  5  2  0
  5  6  1  0
  6  7  2  0
  7  9  1  0
  8 10  1  0
  8  9  2  0
 10 11  1  0
 10 12  2  0
 11 14  2  0
 12 13  1  0
 13 14  1  0
M  END
>  <name>  (293) 
Car Nac Nd0 Car Car Car Car Car Car Car Car Car Nd0 Car

>  <indices>  (293) 
[0, 1, 2]

>  <tasks>  (293) 
probe_placing close_aromatic_ring close_aromatic_ring close_aromatic_ring close_aromatic_ring ring_built build_to_Nd0 close_aromatic_ring no_task close_aromatic_ring close_aromatic_ring close_aromatic_ring

>  <prot_clashes>  (293) 
4

>  <NBS phar>  (293) 
0.12

>  <NBS_non-phar>  (293) 
0.5386597429003034

>  <NBS>  (293) 
0.6586597429003034

>  <source_stage>  (293) 
scored

>  <source_iter>  (293) 
11

>  <source_parent_mol>  (293) 
5

>  <source_scenario>  (293) 
1 1 2 0 0 0 0 9 0 3 5

>  <source_rank_in_scored_call>  (293) 
1

>  <source_current_task>  (293) 
close_aromatic_ring

>  <scenario>  (293) 
1 1 2 0 0 0 0 9 0 3

>  <current_task>  (293) 
no_task

$$$$

     RDKit          3D

 14 16  0  0  0  0  0  0  0  0999 V2000
  -27.9130   -6.7630  -32.0740 C   0  0  0  0  0  0  0  0  0  0  0  0
  -27.3340   -5.7700  -32.7580 N   0  0  0  0  0  0  0  0  0  0  0  0
  -27.9770   -8.0900  -32.2880 N   0  0  0  0  0  0  0  0  0  0  0  0
  -27.3940   -4.4690  -32.3550 C   0  0  0  0  0  0  0  0  0  0  0  0
  -28.0720   -4.1470  -31.1980 C   0  0  0  0  0  0  0  0  0  0  0  0
  -28.6780   -5.1770  -30.4780 C   0  0  0  0  0  0  0  0  0  0  0  0
  -28.6040   -6.4960  -30.9100 C   0  0  0  0  0  0  0  0  0  0  0  0
  -28.6960   -8.6750  -31.2840 C   0  0  0  0  0  0  0  0  0  0  0  0
  -29.0960   -7.6800  -30.4070 C   0  0  0  0  0  0  0  0  0  0  0  0
  -29.0978  -10.0109  -30.9904 C   0  0  0  0  0  0  0  0  0  0  0  0
  -29.9764  -10.7518  -31.7518 C   0  0  0  0  0  0  0  0  0  0  0  0
  -28.7252  -10.7530  -29.8886 C   0  0  0  0  0  0  0  0  0  0  0  0
  -29.3703  -11.9323  -29.9792 N   0  0  0  0  0  0  0  0  0  0  0  0
  -30.1361  -11.9596  -31.0988 C   0  0  0  0  0  0  0  0  0  0  0  0
  1  2  2  0
  1  3  1  0
  1  7  1  0
  2  4  1  0
  3  8  1  0
  4  5  2  0
  5  6  1  0
  6  7  2  0
  7  9  1  0
  8 10  1  0
  8  9  2  0
 10 11  1  0
 10 12  2  0
 12 13  1  0
 11 14  2  0
 13 14  1  0
M  END
>  <name>  (294) 
Car Nac Nd0 Car Car Car Car Car Car Car Car Car Nd0 Car

>  <indices>  (294) 
[0, 1, 2]

>  <tasks>  (294) 
probe_placing close_aromatic_ring close_aromatic_ring close_aromatic_ring close_aromatic_ring ring_built build_to_Nd0 close_aromatic_ring no_task close_aromatic_ring close_aromatic_ring close_aromatic_ring

>  <prot_clashes>  (294) 
6

>  <NBS phar>  (294) 
0.1

>  <NBS_non-phar>  (294) 
0.5314275196620396

>  <NBS>  (294) 
0.6314275196620396

>  <source_stage>  (294) 
scored

>  <source_iter>  (294) 
11

>  <source_parent_mol>  (294) 
5

>  <source_scenario>  (294) 
1 1 2 0 0 0 0 9 0 3 5

>  <source_rank_in_scored_call>  (294) 
2

>  <source_current_task>  (294) 
close_aromatic_ring

>  <scenario>  (294) 
1 1 2 0 0 0 0 9 0 3

>  <current_task>  (294) 
no_task

$$$$

     RDKit          3D

 14 16  0  0  0  0  0  0  0  0999 V2000
  -27.9690   -6.7780  -32.1030 C   0  0  0  0  0  0  0  0  0  0  0  0
  -27.5030   -5.8010  -32.8890 N   0  0  0  0  0  0  0  0  0  0  0  0
  -28.0620   -8.1090  -32.2760 N   0  0  0  0  0  0  0  0  0  0  0  0
  -27.5030   -4.4920  -32.5100 C   0  0  0  0  0  0  0  0  0  0  0  0
  -27.9980   -4.1430  -31.2710 C   0  0  0  0  0  0  0  0  0  0  0  0
  -28.4860   -5.1560  -30.4450 C   0  0  0  0  0  0  0  0  0  0  0  0
  -28.4760   -6.4850  -30.8540 C   0  0  0  0  0  0  0  0  0  0  0  0
  -28.6190   -8.6710  -31.1610 C   0  0  0  0  0  0  0  0  0  0  0  0
  -28.8840   -7.6560  -30.2560 C   0  0  0  0  0  0  0  0  0  0  0  0
  -28.9560   -9.9560  -30.7910 C   0  0  0  0  0  0  0  0  0  0  0  0
  -29.9220  -10.7720  -31.3450 C   0  0  0  0  0  0  0  0  0  0  0  0
  -28.4310  -10.7070  -29.7350 C   0  0  0  0  0  0  0  0  0  0  0  0
  -29.0590  -11.8950  -29.6820 N   0  0  0  0  0  0  0  0  0  0  0  0
  -29.9920  -11.9730  -30.6670 C   0  0  0  0  0  0  0  0  0  0  0  0
  1  2  2  0
  1  3  1  0
  1  7  1  0
  2  4  1  0
  3  8  1  0
  4  5  2  0
  5  6  1  0
  6  7  2  0
  7  9  1  0
  8 10  1  0
  8  9  2  0
 10 11  1  0
 10 12  2  0
 11 14  2  0
 12 13  1  0
 13 14  1  0
M  END
>  <name>  (295) 
Car Nac Nd0 Car Car Car Car Car Car Car Car Car Nd0 Car

>  <indices>  (295) 
[0, 1, 2]

>  <tasks>  (295) 
probe_placing close_aromatic_ring close_aromatic_ring close_aromatic_ring close_aromatic_ring ring_built build_to_Nd0 close_aromatic_ring no_task close_aromatic_ring close_aromatic_ring close_aromatic_ring

>  <prot_clashes>  (295) 
5

>  <NBS phar>  (295) 
0.12

>  <NBS_non-phar>  (295) 
0.5418719223567418

>  <NBS>  (295) 
0.6618719223567417

>  <source_stage>  (295) 
scored

>  <source_iter>  (295) 
11

>  <source_parent_mol>  (295) 
5

>  <source_scenario>  (295) 
1 1 2 0 0 0 0 9 0 3 5

>  <source_rank_in_scored_call>  (295) 
0

>  <source_current_task>  (295) 
close_aromatic_ring

>  <scenario>  (295) 
1 1 2 0 0 0 0 9 0 3

>  <current_task>  (295) 
no_task

$$$$

     RDKit          3D

 14 16  0  0  0  0  0  0  0  0999 V2000
  -27.9130   -6.7630  -32.0740 C   0  0  0  0  0  0  0  0  0  0  0  0
  -27.3340   -5.7700  -32.7580 N   0  0  0  0  0  0  0  0  0  0  0  0
  -27.9770   -8.0900  -32.2880 N   0  0  0  0  0  0  0  0  0  0  0  0
  -27.3940   -4.4690  -32.3550 C   0  0  0  0  0  0  0  0  0  0  0  0
  -28.0720   -4.1470  -31.1980 C   0  0  0  0  0  0  0  0  0  0  0  0
  -28.6780   -5.1770  -30.4780 C   0  0  0  0  0  0  0  0  0  0  0  0
  -28.6040   -6.4960  -30.9100 C   0  0  0  0  0  0  0  0  0  0  0  0
  -28.6960   -8.6750  -31.2840 C   0  0  0  0  0  0  0  0  0  0  0  0
  -29.0960   -7.6800  -30.4070 C   0  0  0  0  0  0  0  0  0  0  0  0
  -29.0830   -9.9673  -30.9974 C   0  0  0  0  0  0  0  0  0  0  0  0
  -29.9519  -10.7694  -31.7103 C   0  0  0  0  0  0  0  0  0  0  0  0
  -28.7230  -10.7415  -29.8911 C   0  0  0  0  0  0  0  0  0  0  0  0
  -29.3507  -11.9299  -29.9597 N   0  0  0  0  0  0  0  0  0  0  0  0
  -30.1234  -11.9837  -31.0771 C   0  0  0  0  0  0  0  0  0  0  0  0
  1  2  2  0
  1  3  1  0
  1  7  1  0
  2  4  1  0
  3  8  1  0
  4  5  2  0
  5  6  1  0
  6  7  2  0
  7  9  1  0
  8 10  1  0
  8  9  2  0
 10 11  1  0
 10 12  2  0
 12 13  1  0
 13 14  1  0
 11 14  2  0
M  END
>  <name>  (296) 
Car Nac Nd0 Car Car Car Car Car Car Car Car Car Nd0 Car

>  <indices>  (296) 
[0, 1, 2]

>  <tasks>  (296) 
probe_placing close_aromatic_ring close_aromatic_ring close_aromatic_ring close_aromatic_ring ring_built build_to_Nd0 close_aromatic_ring no_task close_aromatic_ring close_aromatic_ring close_aromatic_ring

>  <prot_clashes>  (296) 
6

>  <NBS phar>  (296) 
0.1

>  <NBS_non-phar>  (296) 
0.5318276882171631

>  <NBS>  (296) 
0.6318276882171631

>  <source_stage>  (296) 
scored

>  <source_iter>  (296) 
11

>  <source_parent_mol>  (296) 
5

>  <source_scenario>  (296) 
1 1 2 0 0 0 0 9 0 3 5

>  <source_rank_in_scored_call>  (296) 
2

>  <source_current_task>  (296) 
close_aromatic_ring

>  <scenario>  (296) 
1 1 2 0 0 0 0 9 0 3

>  <current_task>  (296) 
no_task

$$$$

     RDKit          3D

 14 16  0  0  0  0  0  0  0  0999 V2000
  -27.9600   -6.7780  -32.1010 C   0  0  0  0  0  0  0  0  0  0  0  0
  -27.4910   -5.8030  -32.8880 N   0  0  0  0  0  0  0  0  0  0  0  0
  -28.0500   -8.1100  -32.2700 N   0  0  0  0  0  0  0  0  0  0  0  0
  -27.4950   -4.4930  -32.5140 C   0  0  0  0  0  0  0  0  0  0  0  0
  -27.9960   -4.1410  -31.2780 C   0  0  0  0  0  0  0  0  0  0  0  0
  -28.4860   -5.1520  -30.4500 C   0  0  0  0  0  0  0  0  0  0  0  0
  -28.4720   -6.4810  -30.8550 C   0  0  0  0  0  0  0  0  0  0  0  0
  -28.6110   -8.6690  -31.1560 C   0  0  0  0  0  0  0  0  0  0  0  0
  -28.8810   -7.6520  -30.2550 C   0  0  0  0  0  0  0  0  0  0  0  0
  -28.9550   -9.9920  -30.7670 C   0  0  0  0  0  0  0  0  0  0  0  0
  -29.9340  -10.7620  -31.3740 C   0  0  0  0  0  0  0  0  0  0  0  0
  -28.4120  -10.6920  -29.7120 C   0  0  0  0  0  0  0  0  0  0  0  0
  -29.0450  -11.8900  -29.6590 N   0  0  0  0  0  0  0  0  0  0  0  0
  -29.9720  -11.9510  -30.6580 C   0  0  0  0  0  0  0  0  0  0  0  0
  1  2  2  0
  1  3  1  0
  1  7  1  0
  2  4  1  0
  3  8  1  0
  4  5  2  0
  5  6  1  0
  6  7  2  0
  7  9  1  0
  8 10  1  0
  8  9  2  0
 10 11  1  0
 10 12  2  0
 11 14  2  0
 12 13  1  0
 13 14  1  0
M  END
>  <name>  (297) 
Car Nac Nd0 Car Car Car Car Car Car Car Car Car Nd0 Car

>  <indices>  (297) 
[0, 1, 2]

>  <tasks>  (297) 
probe_placing close_aromatic_ring close_aromatic_ring close_aromatic_ring close_aromatic_ring ring_built build_to_Nd0 close_aromatic_ring no_task close_aromatic_ring close_aromatic_ring close_aromatic_ring

>  <prot_clashes>  (297) 
5

>  <NBS phar>  (297) 
0.12

>  <NBS_non-phar>  (297) 
0.547074726649693

>  <NBS>  (297) 
0.667074726649693

>  <source_stage>  (297) 
scored

>  <source_iter>  (297) 
11

>  <source_parent_mol>  (297) 
5

>  <source_scenario>  (297) 
1 1 2 0 0 0 0 9 0 3 5

>  <source_rank_in_scored_call>  (297) 
0

>  <source_current_task>  (297) 
close_aromatic_ring

>  <scenario>  (297) 
1 1 2 0 0 0 0 9 0 3

>  <current_task>  (297) 
no_task

$$$$

     RDKit          3D

 14 16  0  0  0  0  0  0  0  0999 V2000
  -27.9130   -6.7630  -32.0740 C   0  0  0  0  0  0  0  0  0  0  0  0
  -27.3340   -5.7700  -32.7580 N   0  0  0  0  0  0  0  0  0  0  0  0
  -27.9770   -8.0900  -32.2880 N   0  0  0  0  0  0  0  0  0  0  0  0
  -27.3940   -4.4690  -32.3550 C   0  0  0  0  0  0  0  0  0  0  0  0
  -28.0720   -4.1470  -31.1980 C   0  0  0  0  0  0  0  0  0  0  0  0
  -28.6780   -5.1770  -30.4780 C   0  0  0  0  0  0  0  0  0  0  0  0
  -28.6040   -6.4960  -30.9100 C   0  0  0  0  0  0  0  0  0  0  0  0
  -28.6960   -8.6750  -31.2840 C   0  0  0  0  0  0  0  0  0  0  0  0
  -29.0960   -7.6800  -30.4070 C   0  0  0  0  0  0  0  0  0  0  0  0
  -29.0932  -10.0057  -30.9843 C   0  0  0  0  0  0  0  0  0  0  0  0
  -29.9708  -10.7568  -31.7477 C   0  0  0  0  0  0  0  0  0  0  0  0
  -28.7110  -10.7344  -29.8783 C   0  0  0  0  0  0  0  0  0  0  0  0
  -29.3443  -11.9308  -29.9497 N   0  0  0  0  0  0  0  0  0  0  0  0
  -30.1128  -11.9642  -31.0756 C   0  0  0  0  0  0  0  0  0  0  0  0
  1  2  2  0
  1  3  1  0
  1  7  1  0
  2  4  1  0
  3  8  1  0
  4  5  2  0
  5  6  1  0
  6  7  2  0
  7  9  1  0
  8 10  1  0
  8  9  2  0
 10 11  1  0
 10 12  2  0
 12 13  1  0
 13 14  1  0
 11 14  2  0
M  END
>  <name>  (298) 
Car Nac Nd0 Car Car Car Car Car Car Car Car Car Nd0 Car

>  <indices>  (298) 
[0, 1, 2]

>  <tasks>  (298) 
probe_placing close_aromatic_ring close_aromatic_ring close_aromatic_ring close_aromatic_ring ring_built build_to_Nd0 close_aromatic_ring no_task close_aromatic_ring close_aromatic_ring close_aromatic_ring

>  <prot_clashes>  (298) 
6

>  <NBS phar>  (298) 
0.1

>  <NBS_non-phar>  (298) 
0.5319922651563372

>  <NBS>  (298) 
0.6319922651563372

>  <source_stage>  (298) 
scored

>  <source_iter>  (298) 
11

>  <source_parent_mol>  (298) 
5

>  <source_scenario>  (298) 
1 1 2 0 0 0 0 9 0 3 5

>  <source_rank_in_scored_call>  (298) 
2

>  <source_current_task>  (298) 
close_aromatic_ring

>  <scenario>  (298) 
1 1 2 0 0 0 0 9 0 3

>  <current_task>  (298) 
no_task

$$$$

     RDKit          3D

 14 16  0  0  0  0  0  0  0  0999 V2000
  -27.9670   -6.7750  -32.0990 C   0  0  0  0  0  0  0  0  0  0  0  0
  -27.5100   -5.7970  -32.8880 N   0  0  0  0  0  0  0  0  0  0  0  0
  -28.0620   -8.1060  -32.2730 N   0  0  0  0  0  0  0  0  0  0  0  0
  -27.5050   -4.4880  -32.5070 C   0  0  0  0  0  0  0  0  0  0  0  0
  -27.9850   -4.1420  -31.2610 C   0  0  0  0  0  0  0  0  0  0  0  0
  -28.4630   -5.1570  -30.4310 C   0  0  0  0  0  0  0  0  0  0  0  0
  -28.4580   -6.4840  -30.8430 C   0  0  0  0  0  0  0  0  0  0  0  0
  -28.6060   -8.6700  -31.1530 C   0  0  0  0  0  0  0  0  0  0  0  0
  -28.8590   -7.6570  -30.2430 C   0  0  0  0  0  0  0  0  0  0  0  0
  -28.9540  -10.0030  -30.7710 C   0  0  0  0  0  0  0  0  0  0  0  0
  -29.9520  -10.7500  -31.3760 C   0  0  0  0  0  0  0  0  0  0  0  0
  -28.3950  -10.7160  -29.7250 C   0  0  0  0  0  0  0  0  0  0  0  0
  -29.0550  -11.9080  -29.6900 N   0  0  0  0  0  0  0  0  0  0  0  0
  -29.9830  -11.9450  -30.6640 C   0  0  0  0  0  0  0  0  0  0  0  0
  1  2  2  0
  1  3  1  0
  1  7  1  0
  2  4  1  0
  3  8  1  0
  4  5  2  0
  5  6  1  0
  6  7  2  0
  7  9  1  0
  8 10  1  0
  8  9  2  0
 10 11  1  0
 10 12  2  0
 11 14  2  0
 12 13  1  0
 13 14  1  0
M  END
>  <name>  (299) 
Car Nac Nd0 Car Car Car Car Car Car Car Car Car Nd0 Car

>  <indices>  (299) 
[0, 1, 2]

>  <tasks>  (299) 
probe_placing close_aromatic_ring close_aromatic_ring close_aromatic_ring close_aromatic_ring ring_built build_to_Nd0 close_aromatic_ring no_task close_aromatic_ring close_aromatic_ring close_aromatic_ring

>  <prot_clashes>  (299) 
4

>  <NBS phar>  (299) 
0.12

>  <NBS_non-phar>  (299) 
0.5451184681483677

>  <NBS>  (299) 
0.6651184681483677

>  <source_stage>  (299) 
scored

>  <source_iter>  (299) 
11

>  <source_parent_mol>  (299) 
5

>  <source_scenario>  (299) 
1 1 2 0 0 0 0 9 0 3 5

>  <source_rank_in_scored_call>  (299) 
0

>  <source_current_task>  (299) 
close_aromatic_ring

>  <scenario>  (299) 
1 1 2 0 0 0 0 9 0 3

>  <current_task>  (299) 
no_task

$$$$

     RDKit          3D

 14 16  0  0  0  0  0  0  0  0999 V2000
  -27.9130   -6.7630  -32.0740 C   0  0  0  0  0  0  0  0  0  0  0  0
  -27.3340   -5.7700  -32.7580 N   0  0  0  0  0  0  0  0  0  0  0  0
  -27.9770   -8.0900  -32.2880 N   0  0  0  0  0  0  0  0  0  0  0  0
  -27.3940   -4.4690  -32.3550 C   0  0  0  0  0  0  0  0  0  0  0  0
  -28.0720   -4.1470  -31.1980 C   0  0  0  0  0  0  0  0  0  0  0  0
  -28.6780   -5.1770  -30.4780 C   0  0  0  0  0  0  0  0  0  0  0  0
  -28.6040   -6.4960  -30.9100 C   0  0  0  0  0  0  0  0  0  0  0  0
  -28.6960   -8.6750  -31.2840 C   0  0  0  0  0  0  0  0  0  0  0  0
  -29.0960   -7.6800  -30.4070 C   0  0  0  0  0  0  0  0  0  0  0  0
  -29.0998  -10.0154  -30.9900 C   0  0  0  0  0  0  0  0  0  0  0  0
  -29.9838  -10.7471  -31.7664 C   0  0  0  0  0  0  0  0  0  0  0  0
  -28.7186  -10.7491  -29.8815 C   0  0  0  0  0  0  0  0  0  0  0  0
  -29.3740  -11.9405  -29.9787 N   0  0  0  0  0  0  0  0  0  0  0  0
  -30.1295  -11.9555  -31.0922 C   0  0  0  0  0  0  0  0  0  0  0  0
  1  2  2  0
  1  3  1  0
  1  7  1  0
  2  4  1  0
  3  8  1  0
  4  5  2  0
  5  6  1  0
  6  7  2  0
  7  9  1  0
  8 10  1  0
  8  9  2  0
 10 11  1  0
 10 12  2  0
 12 13  1  0
 11 14  2  0
 13 14  1  0
M  END
>  <name>  (300) 
Car Nac Nd0 Car Car Car Car Car Car Car Car Car Nd0 Car

>  <indices>  (300) 
[0, 1, 2]

>  <tasks>  (300) 
probe_placing close_aromatic_ring close_aromatic_ring close_aromatic_ring close_aromatic_ring ring_built build_to_Nd0 close_aromatic_ring no_task close_aromatic_ring close_aromatic_ring close_aromatic_ring

>  <prot_clashes>  (300) 
6

>  <NBS phar>  (300) 
0.1

>  <NBS_non-phar>  (300) 
0.5318033354622977

>  <NBS>  (300) 
0.6318033354622977

>  <source_stage>  (300) 
scored

>  <source_iter>  (300) 
11

>  <source_parent_mol>  (300) 
5

>  <source_scenario>  (300) 
1 1 2 0 0 0 0 9 0 3 5

>  <source_rank_in_scored_call>  (300) 
2

>  <source_current_task>  (300) 
close_aromatic_ring

>  <scenario>  (300) 
1 1 2 0 0 0 0 9 0 3

>  <current_task>  (300) 
no_task

$$$$

     RDKit          3D

 14 16  0  0  0  0  0  0  0  0999 V2000
  -27.9880   -6.7760  -32.0990 C   0  0  0  0  0  0  0  0  0  0  0  0
  -27.5410   -5.7930  -32.8890 N   0  0  0  0  0  0  0  0  0  0  0  0
  -28.0630   -8.1090  -32.2710 N   0  0  0  0  0  0  0  0  0  0  0  0
  -27.5570   -4.4830  -32.5110 C   0  0  0  0  0  0  0  0  0  0  0  0
  -28.0480   -4.1410  -31.2680 C   0  0  0  0  0  0  0  0  0  0  0  0
  -28.5150   -5.1610  -30.4380 C   0  0  0  0  0  0  0  0  0  0  0  0
  -28.4890   -6.4890  -30.8470 C   0  0  0  0  0  0  0  0  0  0  0  0
  -28.6040   -8.6780  -31.1520 C   0  0  0  0  0  0  0  0  0  0  0  0
  -28.8760   -7.6660  -30.2450 C   0  0  0  0  0  0  0  0  0  0  0  0
  -28.9240   -9.9860  -30.7740 C   0  0  0  0  0  0  0  0  0  0  0  0
  -29.9140  -10.7790  -31.3700 C   0  0  0  0  0  0  0  0  0  0  0  0
  -28.3920  -10.7260  -29.7370 C   0  0  0  0  0  0  0  0  0  0  0  0
  -29.0120  -11.9360  -29.6700 N   0  0  0  0  0  0  0  0  0  0  0  0
  -29.9300  -11.9700  -30.6550 C   0  0  0  0  0  0  0  0  0  0  0  0
  1  2  2  0
  1  3  1  0
  1  7  1  0
  2  4  1  0
  3  8  1  0
  4  5  2  0
  5  6  1  0
  6  7  2  0
  7  9  1  0
  8 10  1  0
  8  9  2  0
 10 11  1  0
 10 12  2  0
 11 14  2  0
 12 13  1  0
 13 14  1  0
M  END
>  <name>  (301) 
Car Nac Nd0 Car Car Car Car Car Car Car Car Car Nd0 Car

>  <indices>  (301) 
[0, 1, 2]

>  <tasks>  (301) 
probe_placing close_aromatic_ring close_aromatic_ring close_aromatic_ring close_aromatic_ring ring_built build_to_Nd0 close_aromatic_ring no_task close_aromatic_ring close_aromatic_ring close_aromatic_ring

>  <prot_clashes>  (301) 
4

>  <NBS phar>  (301) 
0.12

>  <NBS_non-phar>  (301) 
0.5642871175493512

>  <NBS>  (301) 
0.6842871175493512

>  <source_stage>  (301) 
scored

>  <source_iter>  (301) 
11

>  <source_parent_mol>  (301) 
5

>  <source_scenario>  (301) 
1 1 2 0 0 0 0 9 0 3 5

>  <source_rank_in_scored_call>  (301) 
0

>  <source_current_task>  (301) 
close_aromatic_ring

>  <scenario>  (301) 
1 1 2 0 0 0 0 9 0 3

>  <current_task>  (301) 
no_task

$$$$

     RDKit          3D

 14 16  0  0  0  0  0  0  0  0999 V2000
  -27.9130   -6.7630  -32.0740 C   0  0  0  0  0  0  0  0  0  0  0  0
  -27.3340   -5.7700  -32.7580 N   0  0  0  0  0  0  0  0  0  0  0  0
  -27.9770   -8.0900  -32.2880 N   0  0  0  0  0  0  0  0  0  0  0  0
  -27.3940   -4.4690  -32.3550 C   0  0  0  0  0  0  0  0  0  0  0  0
  -28.0720   -4.1470  -31.1980 C   0  0  0  0  0  0  0  0  0  0  0  0
  -28.6780   -5.1770  -30.4780 C   0  0  0  0  0  0  0  0  0  0  0  0
  -28.6040   -6.4960  -30.9100 C   0  0  0  0  0  0  0  0  0  0  0  0
  -28.6960   -8.6750  -31.2840 C   0  0  0  0  0  0  0  0  0  0  0  0
  -29.0960   -7.6800  -30.4070 C   0  0  0  0  0  0  0  0  0  0  0  0
  -29.0882   -9.9863  -30.9943 C   0  0  0  0  0  0  0  0  0  0  0  0
  -29.9798  -10.7496  -31.7585 C   0  0  0  0  0  0  0  0  0  0  0  0
  -28.7374  -10.7575  -29.9035 C   0  0  0  0  0  0  0  0  0  0  0  0
  -29.3754  -11.9587  -29.9674 N   0  0  0  0  0  0  0  0  0  0  0  0
  -30.1248  -11.9556  -31.0851 C   0  0  0  0  0  0  0  0  0  0  0  0
  1  2  2  0
  1  3  1  0
  1  7  1  0
  2  4  1  0
  3  8  1  0
  4  5  2  0
  5  6  1  0
  6  7  2  0
  7  9  1  0
  8 10  1  0
  8  9  2  0
 10 11  1  0
 10 12  2  0
 12 13  1  0
 11 14  2  0
 13 14  1  0
M  END
>  <name>  (302) 
Car Nac Nd0 Car Car Car Car Car Car Car Car Car Nd0 Car

>  <indices>  (302) 
[0, 1, 2]

>  <tasks>  (302) 
probe_placing close_aromatic_ring close_aromatic_ring close_aromatic_ring close_aromatic_ring ring_built build_to_Nd0 close_aromatic_ring no_task close_aromatic_ring close_aromatic_ring close_aromatic_ring

>  <prot_clashes>  (302) 
6

>  <NBS phar>  (302) 
0.1

>  <NBS_non-phar>  (302) 
0.5330242429460798

>  <NBS>  (302) 
0.6330242429460797

>  <source_stage>  (302) 
scored

>  <source_iter>  (302) 
11

>  <source_parent_mol>  (302) 
5

>  <source_scenario>  (302) 
1 1 2 0 0 0 0 9 0 3 5

>  <source_rank_in_scored_call>  (302) 
2

>  <source_current_task>  (302) 
close_aromatic_ring

>  <scenario>  (302) 
1 1 2 0 0 0 0 9 0 3

>  <current_task>  (302) 
no_task

$$$$

     RDKit          3D

 14 16  0  0  0  0  0  0  0  0999 V2000
  -27.9750   -6.7810  -32.1080 C   0  0  0  0  0  0  0  0  0  0  0  0
  -27.5060   -5.8020  -32.8890 N   0  0  0  0  0  0  0  0  0  0  0  0
  -28.0630   -8.1120  -32.2820 N   0  0  0  0  0  0  0  0  0  0  0  0
  -27.5130   -4.4930  -32.5100 C   0  0  0  0  0  0  0  0  0  0  0  0
  -28.0180   -4.1470  -31.2740 C   0  0  0  0  0  0  0  0  0  0  0  0
  -28.5090   -5.1620  -30.4520 C   0  0  0  0  0  0  0  0  0  0  0  0
  -28.4920   -6.4900  -30.8620 C   0  0  0  0  0  0  0  0  0  0  0  0
  -28.6270   -8.6770  -31.1720 C   0  0  0  0  0  0  0  0  0  0  0  0
  -28.9000   -7.6630  -30.2680 C   0  0  0  0  0  0  0  0  0  0  0  0
  -28.9630   -9.9890  -30.7900 C   0  0  0  0  0  0  0  0  0  0  0  0
  -29.9380  -10.7820  -31.3860 C   0  0  0  0  0  0  0  0  0  0  0  0
  -28.4330  -10.7070  -29.7380 C   0  0  0  0  0  0  0  0  0  0  0  0
  -29.0680  -11.8920  -29.7040 N   0  0  0  0  0  0  0  0  0  0  0  0
  -29.9850  -11.9710  -30.6880 C   0  0  0  0  0  0  0  0  0  0  0  0
  1  2  2  0
  1  3  1  0
  1  7  1  0
  2  4  1  0
  3  8  1  0
  4  5  2  0
  5  6  1  0
  6  7  2  0
  7  9  1  0
  8 10  1  0
  8  9  2  0
 10 11  1  0
 10 12  2  0
 11 14  2  0
 12 13  1  0
 13 14  1  0
M  END
>  <name>  (303) 
Car Nac Nd0 Car Car Car Car Car Car Car Car Car Nd0 Car

>  <indices>  (303) 
[0, 1, 2]

>  <tasks>  (303) 
probe_placing close_aromatic_ring close_aromatic_ring close_aromatic_ring close_aromatic_ring ring_built build_to_Nd0 close_aromatic_ring no_task close_aromatic_ring close_aromatic_ring close_aromatic_ring

>  <prot_clashes>  (303) 
5

>  <NBS phar>  (303) 
0.12

>  <NBS_non-phar>  (303) 
0.5394081047603062

>  <NBS>  (303) 
0.6594081047603062

>  <source_stage>  (303) 
scored

>  <source_iter>  (303) 
11

>  <source_parent_mol>  (303) 
5

>  <source_scenario>  (303) 
1 1 2 0 0 0 0 9 0 3 5

>  <source_rank_in_scored_call>  (303) 
0

>  <source_current_task>  (303) 
close_aromatic_ring

>  <scenario>  (303) 
1 1 2 0 0 0 0 9 0 3

>  <current_task>  (303) 
no_task

$$$$

     RDKit          3D

 14 16  0  0  0  0  0  0  0  0999 V2000
  -27.9130   -6.7630  -32.0740 C   0  0  0  0  0  0  0  0  0  0  0  0
  -27.3340   -5.7700  -32.7580 N   0  0  0  0  0  0  0  0  0  0  0  0
  -27.9770   -8.0900  -32.2880 N   0  0  0  0  0  0  0  0  0  0  0  0
  -27.3940   -4.4690  -32.3550 C   0  0  0  0  0  0  0  0  0  0  0  0
  -28.0720   -4.1470  -31.1980 C   0  0  0  0  0  0  0  0  0  0  0  0
  -28.6780   -5.1770  -30.4780 C   0  0  0  0  0  0  0  0  0  0  0  0
  -28.6040   -6.4960  -30.9100 C   0  0  0  0  0  0  0  0  0  0  0  0
  -28.6960   -8.6750  -31.2840 C   0  0  0  0  0  0  0  0  0  0  0  0
  -29.0960   -7.6800  -30.4070 C   0  0  0  0  0  0  0  0  0  0  0  0
  -29.0862   -9.9940  -30.9825 C   0  0  0  0  0  0  0  0  0  0  0  0
  -29.9656  -10.7686  -31.7313 C   0  0  0  0  0  0  0  0  0  0  0  0
  -28.7146  -10.7369  -29.8819 C   0  0  0  0  0  0  0  0  0  0  0  0
  -29.3499  -11.9195  -29.9663 N   0  0  0  0  0  0  0  0  0  0  0  0
  -30.1158  -11.9728  -31.0736 C   0  0  0  0  0  0  0  0  0  0  0  0
  1  2  2  0
  1  3  1  0
  1  7  1  0
  2  4  1  0
  3  8  1  0
  4  5  2  0
  5  6  1  0
  6  7  2  0
  7  9  1  0
  8 10  1  0
  8  9  2  0
 10 11  1  0
 10 12  2  0
 12 13  1  0
 13 14  1  0
 11 14  2  0
M  END
>  <name>  (304) 
Car Nac Nd0 Car Car Car Car Car Car Car Car Car Nd0 Car

>  <indices>  (304) 
[0, 1, 2]

>  <tasks>  (304) 
probe_placing close_aromatic_ring close_aromatic_ring close_aromatic_ring close_aromatic_ring ring_built build_to_Nd0 close_aromatic_ring no_task close_aromatic_ring close_aromatic_ring close_aromatic_ring

>  <prot_clashes>  (304) 
6

>  <NBS phar>  (304) 
0.1

>  <NBS_non-phar>  (304) 
0.531402553830828

>  <NBS>  (304) 
0.631402553830828

>  <source_stage>  (304) 
scored

>  <source_iter>  (304) 
11

>  <source_parent_mol>  (304) 
5

>  <source_scenario>  (304) 
1 1 2 0 0 0 0 9 0 3 5

>  <source_rank_in_scored_call>  (304) 
2

>  <source_current_task>  (304) 
close_aromatic_ring

>  <scenario>  (304) 
1 1 2 0 0 0 0 9 0 3

>  <current_task>  (304) 
no_task

$$$$

     RDKit          3D

 14 16  0  0  0  0  0  0  0  0999 V2000
  -27.9820   -6.7810  -32.1070 C   0  0  0  0  0  0  0  0  0  0  0  0
  -27.5300   -5.7960  -32.8910 N   0  0  0  0  0  0  0  0  0  0  0  0
  -28.0590   -8.1130  -32.2830 N   0  0  0  0  0  0  0  0  0  0  0  0
  -27.5450   -4.4870  -32.5090 C   0  0  0  0  0  0  0  0  0  0  0  0
  -28.0400   -4.1490  -31.2670 C   0  0  0  0  0  0  0  0  0  0  0  0
  -28.5130   -5.1700  -30.4420 C   0  0  0  0  0  0  0  0  0  0  0  0
  -28.4880   -6.4970  -30.8550 C   0  0  0  0  0  0  0  0  0  0  0  0
  -28.6050   -8.6840  -31.1680 C   0  0  0  0  0  0  0  0  0  0  0  0
  -28.8790   -7.6750  -30.2590 C   0  0  0  0  0  0  0  0  0  0  0  0
  -28.9300  -10.0000  -30.7900 C   0  0  0  0  0  0  0  0  0  0  0  0
  -29.8970  -10.7970  -31.3730 C   0  0  0  0  0  0  0  0  0  0  0  0
  -28.3750  -10.7130  -29.7410 C   0  0  0  0  0  0  0  0  0  0  0  0
  -29.0000  -11.9200  -29.6960 N   0  0  0  0  0  0  0  0  0  0  0  0
  -29.9260  -11.9890  -30.6780 C   0  0  0  0  0  0  0  0  0  0  0  0
  1  2  2  0
  1  3  1  0
  1  7  1  0
  2  4  1  0
  3  8  1  0
  4  5  2  0
  5  6  1  0
  6  7  2  0
  7  9  1  0
  8 10  1  0
  8  9  2  0
 10 11  1  0
 10 12  2  0
 11 14  2  0
 12 13  1  0
 13 14  1  0
M  END
>  <name>  (305) 
Car Nac Nd0 Car Car Car Car Car Car Car Car Car Nd0 Car

>  <indices>  (305) 
[0, 1, 2]

>  <tasks>  (305) 
probe_placing close_aromatic_ring close_aromatic_ring close_aromatic_ring close_aromatic_ring ring_built build_to_Nd0 close_aromatic_ring no_task close_aromatic_ring close_aromatic_ring close_aromatic_ring

>  <prot_clashes>  (305) 
4

>  <NBS phar>  (305) 
0.12

>  <NBS_non-phar>  (305) 
0.5475302083151681

>  <NBS>  (305) 
0.6675302083151681

>  <source_stage>  (305) 
scored

>  <source_iter>  (305) 
11

>  <source_parent_mol>  (305) 
5

>  <source_scenario>  (305) 
1 1 2 0 0 0 0 9 0 3 5

>  <source_rank_in_scored_call>  (305) 
1

>  <source_current_task>  (305) 
close_aromatic_ring

>  <scenario>  (305) 
1 1 2 0 0 0 0 9 0 3

>  <current_task>  (305) 
no_task

$$$$

     RDKit          3D

 14 16  0  0  0  0  0  0  0  0999 V2000
  -27.9130   -6.7630  -32.0740 C   0  0  0  0  0  0  0  0  0  0  0  0
  -27.3340   -5.7700  -32.7580 N   0  0  0  0  0  0  0  0  0  0  0  0
  -27.9770   -8.0900  -32.2880 N   0  0  0  0  0  0  0  0  0  0  0  0
  -27.3940   -4.4690  -32.3550 C   0  0  0  0  0  0  0  0  0  0  0  0
  -28.0720   -4.1470  -31.1980 C   0  0  0  0  0  0  0  0  0  0  0  0
  -28.6780   -5.1770  -30.4780 C   0  0  0  0  0  0  0  0  0  0  0  0
  -28.6040   -6.4960  -30.9100 C   0  0  0  0  0  0  0  0  0  0  0  0
  -28.6960   -8.6750  -31.2840 C   0  0  0  0  0  0  0  0  0  0  0  0
  -29.0960   -7.6800  -30.4070 C   0  0  0  0  0  0  0  0  0  0  0  0
  -29.0901   -9.9930  -30.9890 C   0  0  0  0  0  0  0  0  0  0  0  0
  -29.9638  -10.7649  -31.7312 C   0  0  0  0  0  0  0  0  0  0  0  0
  -28.7130  -10.7337  -29.8817 C   0  0  0  0  0  0  0  0  0  0  0  0
  -29.3512  -11.9316  -29.9594 N   0  0  0  0  0  0  0  0  0  0  0  0
  -30.1141  -11.9686  -31.0742 C   0  0  0  0  0  0  0  0  0  0  0  0
  1  2  2  0
  1  3  1  0
  1  7  1  0
  2  4  1  0
  3  8  1  0
  4  5  2  0
  5  6  1  0
  6  7  2  0
  7  9  1  0
  8 10  1  0
  8  9  2  0
 10 11  1  0
 10 12  2  0
 12 13  1  0
 13 14  1  0
 11 14  2  0
M  END
>  <name>  (306) 
Car Nac Nd0 Car Car Car Car Car Car Car Car Car Nd0 Car

>  <indices>  (306) 
[0, 1, 2]

>  <tasks>  (306) 
probe_placing close_aromatic_ring close_aromatic_ring close_aromatic_ring close_aromatic_ring ring_built build_to_Nd0 close_aromatic_ring no_task close_aromatic_ring close_aromatic_ring close_aromatic_ring

>  <prot_clashes>  (306) 
6

>  <NBS phar>  (306) 
0.1

>  <NBS_non-phar>  (306) 
0.5320254734584263

>  <NBS>  (306) 
0.6320254734584263

>  <source_stage>  (306) 
scored

>  <source_iter>  (306) 
11

>  <source_parent_mol>  (306) 
5

>  <source_scenario>  (306) 
1 1 2 0 0 0 0 9 0 3 5

>  <source_rank_in_scored_call>  (306) 
2

>  <source_current_task>  (306) 
close_aromatic_ring

>  <scenario>  (306) 
1 1 2 0 0 0 0 9 0 3

>  <current_task>  (306) 
no_task

$$$$

     RDKit          3D

 14 16  0  0  0  0  0  0  0  0999 V2000
  -27.9720   -6.7790  -32.1030 C   0  0  0  0  0  0  0  0  0  0  0  0
  -27.5160   -5.7960  -32.8870 N   0  0  0  0  0  0  0  0  0  0  0  0
  -28.0620   -8.1100  -32.2820 N   0  0  0  0  0  0  0  0  0  0  0  0
  -27.5190   -4.4890  -32.5010 C   0  0  0  0  0  0  0  0  0  0  0  0
  -28.0050   -4.1490  -31.2560 C   0  0  0  0  0  0  0  0  0  0  0  0
  -28.4810   -5.1690  -30.4310 C   0  0  0  0  0  0  0  0  0  0  0  0
  -28.4700   -6.4950  -30.8480 C   0  0  0  0  0  0  0  0  0  0  0  0
  -28.6070   -8.6800  -31.1660 C   0  0  0  0  0  0  0  0  0  0  0  0
  -28.8680   -7.6720  -30.2530 C   0  0  0  0  0  0  0  0  0  0  0  0
  -28.9350   -9.9820  -30.7920 C   0  0  0  0  0  0  0  0  0  0  0  0
  -29.9240  -10.7790  -31.3790 C   0  0  0  0  0  0  0  0  0  0  0  0
  -28.3990  -10.7210  -29.7540 C   0  0  0  0  0  0  0  0  0  0  0  0
  -29.0150  -11.9290  -29.6830 N   0  0  0  0  0  0  0  0  0  0  0  0
  -29.9510  -11.9700  -30.6780 C   0  0  0  0  0  0  0  0  0  0  0  0
  1  2  2  0
  1  3  1  0
  1  7  1  0
  2  4  1  0
  3  8  1  0
  4  5  2  0
  5  6  1  0
  6  7  2  0
  7  9  1  0
  8 10  1  0
  8  9  2  0
 10 11  1  0
 10 12  2  0
 11 14  2  0
 12 13  1  0
 13 14  1  0
M  END
>  <name>  (307) 
Car Nac Nd0 Car Car Car Car Car Car Car Car Car Nd0 Car

>  <indices>  (307) 
[0, 1, 2]

>  <tasks>  (307) 
probe_placing close_aromatic_ring close_aromatic_ring close_aromatic_ring close_aromatic_ring ring_built build_to_Nd0 close_aromatic_ring no_task close_aromatic_ring close_aromatic_ring close_aromatic_ring

>  <prot_clashes>  (307) 
4

>  <NBS phar>  (307) 
0.12

>  <NBS_non-phar>  (307) 
0.5349082265581403

>  <NBS>  (307) 
0.6549082265581403

>  <source_stage>  (307) 
scored

>  <source_iter>  (307) 
11

>  <source_parent_mol>  (307) 
5

>  <source_scenario>  (307) 
1 1 2 0 0 0 0 9 0 3 5

>  <source_rank_in_scored_call>  (307) 
1

>  <source_current_task>  (307) 
close_aromatic_ring

>  <scenario>  (307) 
1 1 2 0 0 0 0 9 0 3

>  <current_task>  (307) 
no_task

$$$$

     RDKit          3D

 14 16  0  0  0  0  0  0  0  0999 V2000
  -27.9130   -6.7630  -32.0740 C   0  0  0  0  0  0  0  0  0  0  0  0
  -27.3340   -5.7700  -32.7580 N   0  0  0  0  0  0  0  0  0  0  0  0
  -27.9770   -8.0900  -32.2880 N   0  0  0  0  0  0  0  0  0  0  0  0
  -27.3940   -4.4690  -32.3550 C   0  0  0  0  0  0  0  0  0  0  0  0
  -28.0720   -4.1470  -31.1980 C   0  0  0  0  0  0  0  0  0  0  0  0
  -28.6780   -5.1770  -30.4780 C   0  0  0  0  0  0  0  0  0  0  0  0
  -28.6040   -6.4960  -30.9100 C   0  0  0  0  0  0  0  0  0  0  0  0
  -28.6960   -8.6750  -31.2840 C   0  0  0  0  0  0  0  0  0  0  0  0
  -29.0960   -7.6800  -30.4070 C   0  0  0  0  0  0  0  0  0  0  0  0
  -29.0838   -9.9806  -30.9888 C   0  0  0  0  0  0  0  0  0  0  0  0
  -29.9685  -10.7618  -31.7406 C   0  0  0  0  0  0  0  0  0  0  0  0
  -28.7227  -10.7397  -29.8921 C   0  0  0  0  0  0  0  0  0  0  0  0
  -29.3459  -11.9452  -29.9414 N   0  0  0  0  0  0  0  0  0  0  0  0
  -30.1112  -11.9645  -31.0728 C   0  0  0  0  0  0  0  0  0  0  0  0
  1  2  2  0
  1  3  1  0
  1  7  1  0
  2  4  1  0
  3  8  1  0
  4  5  2  0
  5  6  1  0
  6  7  2  0
  7  9  1  0
  8 10  1  0
  8  9  2  0
 10 11  1  0
 10 12  2  0
 12 13  1  0
 13 14  1  0
 11 14  2  0
M  END
>  <name>  (308) 
Car Nac Nd0 Car Car Car Car Car Car Car Car Car Nd0 Car

>  <indices>  (308) 
[0, 1, 2]

>  <tasks>  (308) 
probe_placing close_aromatic_ring close_aromatic_ring close_aromatic_ring close_aromatic_ring ring_built build_to_Nd0 close_aromatic_ring no_task close_aromatic_ring close_aromatic_ring close_aromatic_ring

>  <prot_clashes>  (308) 
6

>  <NBS phar>  (308) 
0.1

>  <NBS_non-phar>  (308) 
0.5328629016876221

>  <NBS>  (308) 
0.632862901687622

>  <source_stage>  (308) 
scored

>  <source_iter>  (308) 
11

>  <source_parent_mol>  (308) 
5

>  <source_scenario>  (308) 
1 1 2 0 0 0 0 9 0 3 5

>  <source_rank_in_scored_call>  (308) 
2

>  <source_current_task>  (308) 
close_aromatic_ring

>  <scenario>  (308) 
1 1 2 0 0 0 0 9 0 3

>  <current_task>  (308) 
no_task

$$$$

     RDKit          3D

 14 16  0  0  0  0  0  0  0  0999 V2000
  -27.9660   -6.7710  -32.1000 C   0  0  0  0  0  0  0  0  0  0  0  0
  -27.5040   -5.7920  -32.8860 N   0  0  0  0  0  0  0  0  0  0  0  0
  -28.0590   -8.1020  -32.2750 N   0  0  0  0  0  0  0  0  0  0  0  0
  -27.5050   -4.4830  -32.5040 C   0  0  0  0  0  0  0  0  0  0  0  0
  -27.9950   -4.1380  -31.2620 C   0  0  0  0  0  0  0  0  0  0  0  0
  -28.4780   -5.1530  -30.4360 C   0  0  0  0  0  0  0  0  0  0  0  0
  -28.4680   -6.4810  -30.8480 C   0  0  0  0  0  0  0  0  0  0  0  0
  -28.6100   -8.6670  -31.1600 C   0  0  0  0  0  0  0  0  0  0  0  0
  -28.8720   -7.6540  -30.2510 C   0  0  0  0  0  0  0  0  0  0  0  0
  -28.9520   -9.9710  -30.7920 C   0  0  0  0  0  0  0  0  0  0  0  0
  -29.9320  -10.7520  -31.3690 C   0  0  0  0  0  0  0  0  0  0  0  0
  -28.4380  -10.7270  -29.7560 C   0  0  0  0  0  0  0  0  0  0  0  0
  -29.0660  -11.9160  -29.6940 N   0  0  0  0  0  0  0  0  0  0  0  0
  -29.9820  -11.9430  -30.6770 C   0  0  0  0  0  0  0  0  0  0  0  0
  1  2  2  0
  1  3  1  0
  1  7  1  0
  2  4  1  0
  3  8  1  0
  4  5  2  0
  5  6  1  0
  6  7  2  0
  7  9  1  0
  8 10  1  0
  8  9  2  0
 10 11  1  0
 10 12  2  0
 11 14  2  0
 12 13  1  0
 13 14  1  0
M  END
>  <name>  (309) 
Car Nac Nd0 Car Car Car Car Car Car Car Car Car Nd0 Car

>  <indices>  (309) 
[0, 1, 2]

>  <tasks>  (309) 
probe_placing close_aromatic_ring close_aromatic_ring close_aromatic_ring close_aromatic_ring ring_built build_to_Nd0 close_aromatic_ring no_task close_aromatic_ring close_aromatic_ring close_aromatic_ring

>  <prot_clashes>  (309) 
4

>  <NBS phar>  (309) 
0.12

>  <NBS_non-phar>  (309) 
0.5428729397909982

>  <NBS>  (309) 
0.6628729397909982

>  <source_stage>  (309) 
scored

>  <source_iter>  (309) 
11

>  <source_parent_mol>  (309) 
5

>  <source_scenario>  (309) 
1 1 2 0 0 0 0 9 0 3 5

>  <source_rank_in_scored_call>  (309) 
1

>  <source_current_task>  (309) 
close_aromatic_ring

>  <scenario>  (309) 
1 1 2 0 0 0 0 9 0 3

>  <current_task>  (309) 
no_task

$$$$

     RDKit          3D

 14 16  0  0  0  0  0  0  0  0999 V2000
  -27.9130   -6.7630  -32.0740 C   0  0  0  0  0  0  0  0  0  0  0  0
  -27.3340   -5.7700  -32.7580 N   0  0  0  0  0  0  0  0  0  0  0  0
  -27.9770   -8.0900  -32.2880 N   0  0  0  0  0  0  0  0  0  0  0  0
  -27.3940   -4.4690  -32.3550 C   0  0  0  0  0  0  0  0  0  0  0  0
  -28.0720   -4.1470  -31.1980 C   0  0  0  0  0  0  0  0  0  0  0  0
  -28.6780   -5.1770  -30.4780 C   0  0  0  0  0  0  0  0  0  0  0  0
  -28.6040   -6.4960  -30.9100 C   0  0  0  0  0  0  0  0  0  0  0  0
  -28.6960   -8.6750  -31.2840 C   0  0  0  0  0  0  0  0  0  0  0  0
  -29.0960   -7.6800  -30.4070 C   0  0  0  0  0  0  0  0  0  0  0  0
  -29.0915   -9.9854  -30.9998 C   0  0  0  0  0  0  0  0  0  0  0  0
  -29.9679  -10.7522  -31.7387 C   0  0  0  0  0  0  0  0  0  0  0  0
  -28.7455  -10.7630  -29.9115 C   0  0  0  0  0  0  0  0  0  0  0  0
  -29.3747  -11.9513  -29.9718 N   0  0  0  0  0  0  0  0  0  0  0  0
  -30.1261  -11.9556  -31.0870 C   0  0  0  0  0  0  0  0  0  0  0  0
  1  2  2  0
  1  3  1  0
  1  7  1  0
  2  4  1  0
  3  8  1  0
  4  5  2  0
  5  6  1  0
  6  7  2  0
  7  9  1  0
  8 10  1  0
  8  9  2  0
 10 11  1  0
 10 12  2  0
 12 13  1  0
 11 14  2  0
 13 14  1  0
M  END
>  <name>  (310) 
Car Nac Nd0 Car Car Car Car Car Car Car Car Car Nd0 Car

>  <indices>  (310) 
[0, 1, 2]

>  <tasks>  (310) 
probe_placing close_aromatic_ring close_aromatic_ring close_aromatic_ring close_aromatic_ring ring_built build_to_Nd0 close_aromatic_ring no_task close_aromatic_ring close_aromatic_ring close_aromatic_ring

>  <prot_clashes>  (310) 
6

>  <NBS phar>  (310) 
0.1

>  <NBS_non-phar>  (310) 
0.5327145372118268

>  <NBS>  (310) 
0.6327145372118268

>  <source_stage>  (310) 
scored

>  <source_iter>  (310) 
11

>  <source_parent_mol>  (310) 
5

>  <source_scenario>  (310) 
1 1 2 0 0 0 0 9 0 3 5

>  <source_rank_in_scored_call>  (310) 
2

>  <source_current_task>  (310) 
close_aromatic_ring

>  <scenario>  (310) 
1 1 2 0 0 0 0 9 0 3

>  <current_task>  (310) 
no_task

$$$$

     RDKit          3D

 14 16  0  0  0  0  0  0  0  0999 V2000
  -27.9860   -6.7790  -32.1030 C   0  0  0  0  0  0  0  0  0  0  0  0
  -27.5330   -5.7960  -32.8880 N   0  0  0  0  0  0  0  0  0  0  0  0
  -28.0680   -8.1110  -32.2790 N   0  0  0  0  0  0  0  0  0  0  0  0
  -27.5420   -4.4880  -32.5060 C   0  0  0  0  0  0  0  0  0  0  0  0
  -28.0330   -4.1470  -31.2620 C   0  0  0  0  0  0  0  0  0  0  0  0
  -28.5060   -5.1670  -30.4360 C   0  0  0  0  0  0  0  0  0  0  0  0
  -28.4870   -6.4940  -30.8490 C   0  0  0  0  0  0  0  0  0  0  0  0
  -28.6130   -8.6810  -31.1630 C   0  0  0  0  0  0  0  0  0  0  0  0
  -28.8810   -7.6710  -30.2530 C   0  0  0  0  0  0  0  0  0  0  0  0
  -28.9380   -9.9860  -30.7890 C   0  0  0  0  0  0  0  0  0  0  0  0
  -29.9160  -10.7750  -31.3700 C   0  0  0  0  0  0  0  0  0  0  0  0
  -28.4110  -10.7310  -29.7540 C   0  0  0  0  0  0  0  0  0  0  0  0
  -29.0410  -11.9230  -29.7070 N   0  0  0  0  0  0  0  0  0  0  0  0
  -29.9770  -11.9920  -30.6850 C   0  0  0  0  0  0  0  0  0  0  0  0
  1  2  2  0
  1  3  1  0
  1  7  1  0
  2  4  1  0
  3  8  1  0
  4  5  2  0
  5  6  1  0
  6  7  2  0
  7  9  1  0
  8 10  1  0
  8  9  2  0
 10 11  1  0
 10 12  2  0
 11 14  2  0
 12 13  1  0
 13 14  1  0
M  END
>  <name>  (311) 
Car Nac Nd0 Car Car Car Car Car Car Car Car Car Nd0 Car

>  <indices>  (311) 
[0, 1, 2]

>  <tasks>  (311) 
probe_placing close_aromatic_ring close_aromatic_ring close_aromatic_ring close_aromatic_ring ring_built build_to_Nd0 close_aromatic_ring no_task close_aromatic_ring close_aromatic_ring close_aromatic_ring

>  <prot_clashes>  (311) 
4

>  <NBS phar>  (311) 
0.12

>  <NBS_non-phar>  (311) 
0.5424103055681501

>  <NBS>  (311) 
0.6624103055681501

>  <source_stage>  (311) 
scored

>  <source_iter>  (311) 
11

>  <source_parent_mol>  (311) 
5

>  <source_scenario>  (311) 
1 1 2 0 0 0 0 9 0 3 5

>  <source_rank_in_scored_call>  (311) 
0

>  <source_current_task>  (311) 
close_aromatic_ring

>  <scenario>  (311) 
1 1 2 0 0 0 0 9 0 3

>  <current_task>  (311) 
no_task

$$$$

     RDKit          3D

 14 16  0  0  0  0  0  0  0  0999 V2000
  -27.9130   -6.7630  -32.0740 C   0  0  0  0  0  0  0  0  0  0  0  0
  -27.3340   -5.7700  -32.7580 N   0  0  0  0  0  0  0  0  0  0  0  0
  -27.9770   -8.0900  -32.2880 N   0  0  0  0  0  0  0  0  0  0  0  0
  -27.3940   -4.4690  -32.3550 C   0  0  0  0  0  0  0  0  0  0  0  0
  -28.0720   -4.1470  -31.1980 C   0  0  0  0  0  0  0  0  0  0  0  0
  -28.6780   -5.1770  -30.4780 C   0  0  0  0  0  0  0  0  0  0  0  0
  -28.6040   -6.4960  -30.9100 C   0  0  0  0  0  0  0  0  0  0  0  0
  -28.6960   -8.6750  -31.2840 C   0  0  0  0  0  0  0  0  0  0  0  0
  -29.0960   -7.6800  -30.4070 C   0  0  0  0  0  0  0  0  0  0  0  0
  -29.0862   -9.9840  -30.9931 C   0  0  0  0  0  0  0  0  0  0  0  0
  -29.9659  -10.7506  -31.7370 C   0  0  0  0  0  0  0  0  0  0  0  0
  -28.7352  -10.7536  -29.9032 C   0  0  0  0  0  0  0  0  0  0  0  0
  -29.3743  -11.9388  -29.9803 N   0  0  0  0  0  0  0  0  0  0  0  0
  -30.1441  -11.9805  -31.0954 C   0  0  0  0  0  0  0  0  0  0  0  0
  1  2  2  0
  1  3  1  0
  1  7  1  0
  2  4  1  0
  3  8  1  0
  4  5  2  0
  5  6  1  0
  6  7  2  0
  7  9  1  0
  8 10  1  0
  8  9  2  0
 10 11  1  0
 10 12  2  0
 12 13  1  0
 11 14  2  0
 13 14  1  0
M  END
>  <name>  (312) 
Car Nac Nd0 Car Car Car Car Car Car Car Car Car Nd0 Car

>  <indices>  (312) 
[0, 1, 2]

>  <tasks>  (312) 
probe_placing close_aromatic_ring close_aromatic_ring close_aromatic_ring close_aromatic_ring ring_built build_to_Nd0 close_aromatic_ring no_task close_aromatic_ring close_aromatic_ring close_aromatic_ring

>  <prot_clashes>  (312) 
6

>  <NBS phar>  (312) 
0.1

>  <NBS_non-phar>  (312) 
0.5316837855747768

>  <NBS>  (312) 
0.6316837855747768

>  <source_stage>  (312) 
scored

>  <source_iter>  (312) 
11

>  <source_parent_mol>  (312) 
5

>  <source_scenario>  (312) 
1 1 2 0 0 0 0 9 0 3 5

>  <source_rank_in_scored_call>  (312) 
2

>  <source_current_task>  (312) 
close_aromatic_ring

>  <scenario>  (312) 
1 1 2 0 0 0 0 9 0 3

>  <current_task>  (312) 
no_task

$$$$

     RDKit          3D

 14 16  0  0  0  0  0  0  0  0999 V2000
  -27.9720   -6.7800  -32.0990 C   0  0  0  0  0  0  0  0  0  0  0  0
  -27.5110   -5.8030  -32.8880 N   0  0  0  0  0  0  0  0  0  0  0  0
  -28.0620   -8.1120  -32.2700 N   0  0  0  0  0  0  0  0  0  0  0  0
  -27.5140   -4.4930  -32.5110 C   0  0  0  0  0  0  0  0  0  0  0  0
  -28.0040   -4.1440  -31.2700 C   0  0  0  0  0  0  0  0  0  0  0  0
  -28.4850   -5.1580  -30.4400 C   0  0  0  0  0  0  0  0  0  0  0  0
  -28.4740   -6.4860  -30.8480 C   0  0  0  0  0  0  0  0  0  0  0  0
  -28.6130   -8.6740  -31.1520 C   0  0  0  0  0  0  0  0  0  0  0  0
  -28.8750   -7.6590  -30.2470 C   0  0  0  0  0  0  0  0  0  0  0  0
  -28.9510   -9.9730  -30.7810 C   0  0  0  0  0  0  0  0  0  0  0  0
  -29.9210  -10.7750  -31.3370 C   0  0  0  0  0  0  0  0  0  0  0  0
  -28.4210  -10.7220  -29.7270 C   0  0  0  0  0  0  0  0  0  0  0  0
  -29.0710  -11.9000  -29.6960 N   0  0  0  0  0  0  0  0  0  0  0  0
  -29.9950  -11.9670  -30.6650 C   0  0  0  0  0  0  0  0  0  0  0  0
  1  2  2  0
  1  3  1  0
  1  7  1  0
  2  4  1  0
  3  8  1  0
  4  5  2  0
  5  6  1  0
  6  7  2  0
  7  9  1  0
  8 10  1  0
  8  9  2  0
 10 11  1  0
 10 12  2  0
 11 14  2  0
 12 13  1  0
 13 14  1  0
M  END
>  <name>  (313) 
Car Nac Nd0 Car Car Car Car Car Car Car Car Car Nd0 Car

>  <indices>  (313) 
[0, 1, 2]

>  <tasks>  (313) 
probe_placing close_aromatic_ring close_aromatic_ring close_aromatic_ring close_aromatic_ring ring_built build_to_Nd0 close_aromatic_ring no_task close_aromatic_ring close_aromatic_ring close_aromatic_ring

>  <prot_clashes>  (313) 
4

>  <NBS phar>  (313) 
0.12

>  <NBS_non-phar>  (313) 
0.54261200768607

>  <NBS>  (313) 
0.66261200768607

>  <source_stage>  (313) 
scored

>  <source_iter>  (313) 
11

>  <source_parent_mol>  (313) 
5

>  <source_scenario>  (313) 
1 1 2 0 0 0 0 9 0 3 5

>  <source_rank_in_scored_call>  (313) 
1

>  <source_current_task>  (313) 
close_aromatic_ring

>  <scenario>  (313) 
1 1 2 0 0 0 0 9 0 3

>  <current_task>  (313) 
no_task

$$$$

     RDKit          3D

 14 16  0  0  0  0  0  0  0  0999 V2000
  -27.9130   -6.7630  -32.0740 C   0  0  0  0  0  0  0  0  0  0  0  0
  -27.3340   -5.7700  -32.7580 N   0  0  0  0  0  0  0  0  0  0  0  0
  -27.9770   -8.0900  -32.2880 N   0  0  0  0  0  0  0  0  0  0  0  0
  -27.3940   -4.4690  -32.3550 C   0  0  0  0  0  0  0  0  0  0  0  0
  -28.0720   -4.1470  -31.1980 C   0  0  0  0  0  0  0  0  0  0  0  0
  -28.6780   -5.1770  -30.4780 C   0  0  0  0  0  0  0  0  0  0  0  0
  -28.6040   -6.4960  -30.9100 C   0  0  0  0  0  0  0  0  0  0  0  0
  -28.6960   -8.6750  -31.2840 C   0  0  0  0  0  0  0  0  0  0  0  0
  -29.0960   -7.6800  -30.4070 C   0  0  0  0  0  0  0  0  0  0  0  0
  -29.0902   -9.9814  -31.0009 C   0  0  0  0  0  0  0  0  0  0  0  0
  -29.9625  -10.7650  -31.7214 C   0  0  0  0  0  0  0  0  0  0  0  0
  -28.7320  -10.7573  -29.8955 C   0  0  0  0  0  0  0  0  0  0  0  0
  -29.3803  -11.9321  -29.9942 N   0  0  0  0  0  0  0  0  0  0  0  0
  -30.1407  -11.9718  -31.0968 C   0  0  0  0  0  0  0  0  0  0  0  0
  1  2  2  0
  1  3  1  0
  1  7  1  0
  2  4  1  0
  3  8  1  0
  4  5  2  0
  5  6  1  0
  6  7  2  0
  7  9  1  0
  8 10  1  0
  8  9  2  0
 10 11  1  0
 10 12  2  0
 12 13  1  0
 11 14  2  0
 13 14  1  0
M  END
>  <name>  (314) 
Car Nac Nd0 Car Car Car Car Car Car Car Car Car Nd0 Car

>  <indices>  (314) 
[0, 1, 2]

>  <tasks>  (314) 
probe_placing close_aromatic_ring close_aromatic_ring close_aromatic_ring close_aromatic_ring ring_built build_to_Nd0 close_aromatic_ring no_task close_aromatic_ring close_aromatic_ring close_aromatic_ring

>  <prot_clashes>  (314) 
6

>  <NBS phar>  (314) 
0.1

>  <NBS_non-phar>  (314) 
0.5309618881770543

>  <NBS>  (314) 
0.6309618881770542

>  <source_stage>  (314) 
scored

>  <source_iter>  (314) 
11

>  <source_parent_mol>  (314) 
5

>  <source_scenario>  (314) 
1 1 2 0 0 0 0 9 0 3 5

>  <source_rank_in_scored_call>  (314) 
2

>  <source_current_task>  (314) 
close_aromatic_ring

>  <scenario>  (314) 
1 1 2 0 0 0 0 9 0 3

>  <current_task>  (314) 
no_task

$$$$

     RDKit          3D

 14 16  0  0  0  0  0  0  0  0999 V2000
  -27.9910   -6.7900  -32.1020 C   0  0  0  0  0  0  0  0  0  0  0  0
  -27.5560   -5.8000  -32.8900 N   0  0  0  0  0  0  0  0  0  0  0  0
  -28.0680   -8.1210  -32.2840 N   0  0  0  0  0  0  0  0  0  0  0  0
  -27.5690   -4.4940  -32.5000 C   0  0  0  0  0  0  0  0  0  0  0  0
  -28.0430   -4.1620  -31.2490 C   0  0  0  0  0  0  0  0  0  0  0  0
  -28.4980   -5.1890  -30.4210 C   0  0  0  0  0  0  0  0  0  0  0  0
  -28.4760   -6.5140  -30.8410 C   0  0  0  0  0  0  0  0  0  0  0  0
  -28.5930   -8.7000  -31.1630 C   0  0  0  0  0  0  0  0  0  0  0  0
  -28.8540   -7.6970  -30.2440 C   0  0  0  0  0  0  0  0  0  0  0  0
  -28.9180  -10.0430  -30.7860 C   0  0  0  0  0  0  0  0  0  0  0  0
  -29.9060  -10.8030  -31.3830 C   0  0  0  0  0  0  0  0  0  0  0  0
  -28.3400  -10.7500  -29.7510 C   0  0  0  0  0  0  0  0  0  0  0  0
  -28.9780  -11.9540  -29.7120 N   0  0  0  0  0  0  0  0  0  0  0  0
  -29.9160  -11.9920  -30.6850 C   0  0  0  0  0  0  0  0  0  0  0  0
  1  2  2  0
  1  3  1  0
  1  7  1  0
  2  4  1  0
  3  8  1  0
  4  5  2  0
  5  6  1  0
  6  7  2  0
  7  9  1  0
  8 10  1  0
  8  9  2  0
 10 11  1  0
 10 12  2  0
 11 14  2  0
 12 13  1  0
 13 14  1  0
M  END
>  <name>  (315) 
Car Nac Nd0 Car Car Car Car Car Car Car Car Car Nd0 Car

>  <indices>  (315) 
[0, 1, 2]

>  <tasks>  (315) 
probe_placing close_aromatic_ring close_aromatic_ring close_aromatic_ring close_aromatic_ring ring_built build_to_Nd0 close_aromatic_ring no_task close_aromatic_ring close_aromatic_ring close_aromatic_ring

>  <prot_clashes>  (315) 
4

>  <NBS phar>  (315) 
0.12

>  <NBS_non-phar>  (315) 
0.5682063102722168

>  <NBS>  (315) 
0.6882063102722168

>  <source_stage>  (315) 
scored

>  <source_iter>  (315) 
11

>  <source_parent_mol>  (315) 
5

>  <source_scenario>  (315) 
1 1 2 0 0 0 0 9 0 3 5

>  <source_rank_in_scored_call>  (315) 
0

>  <source_current_task>  (315) 
close_aromatic_ring

>  <scenario>  (315) 
1 1 2 0 0 0 0 9 0 3

>  <current_task>  (315) 
no_task

$$$$

     RDKit          3D

 14 16  0  0  0  0  0  0  0  0999 V2000
  -27.9130   -6.7630  -32.0740 C   0  0  0  0  0  0  0  0  0  0  0  0
  -27.3340   -5.7700  -32.7580 N   0  0  0  0  0  0  0  0  0  0  0  0
  -27.9770   -8.0900  -32.2880 N   0  0  0  0  0  0  0  0  0  0  0  0
  -27.3940   -4.4690  -32.3550 C   0  0  0  0  0  0  0  0  0  0  0  0
  -28.0720   -4.1470  -31.1980 C   0  0  0  0  0  0  0  0  0  0  0  0
  -28.6780   -5.1770  -30.4780 C   0  0  0  0  0  0  0  0  0  0  0  0
  -28.6040   -6.4960  -30.9100 C   0  0  0  0  0  0  0  0  0  0  0  0
  -28.6960   -8.6750  -31.2840 C   0  0  0  0  0  0  0  0  0  0  0  0
  -29.0960   -7.6800  -30.4070 C   0  0  0  0  0  0  0  0  0  0  0  0
  -29.1011  -10.0170  -30.9908 C   0  0  0  0  0  0  0  0  0  0  0  0
  -29.9826  -10.7505  -31.7621 C   0  0  0  0  0  0  0  0  0  0  0  0
  -28.7197  -10.7486  -29.8836 C   0  0  0  0  0  0  0  0  0  0  0  0
  -29.3728  -11.9417  -29.9760 N   0  0  0  0  0  0  0  0  0  0  0  0
  -30.1295  -11.9498  -31.0963 C   0  0  0  0  0  0  0  0  0  0  0  0
  1  2  2  0
  1  3  1  0
  1  7  1  0
  2  4  1  0
  3  8  1  0
  4  5  2  0
  5  6  1  0
  6  7  2  0
  7  9  1  0
  8 10  1  0
  8  9  2  0
 10 11  1  0
 10 12  2  0
 12 13  1  0
 11 14  2  0
 13 14  1  0
M  END
>  <name>  (316) 
Car Nac Nd0 Car Car Car Car Car Car Car Car Car Nd0 Car

>  <indices>  (316) 
[0, 1, 2]

>  <tasks>  (316) 
probe_placing close_aromatic_ring close_aromatic_ring close_aromatic_ring close_aromatic_ring ring_built build_to_Nd0 close_aromatic_ring no_task close_aromatic_ring close_aromatic_ring close_aromatic_ring

>  <prot_clashes>  (316) 
6

>  <NBS phar>  (316) 
0.1

>  <NBS_non-phar>  (316) 
0.5319081033979144

>  <NBS>  (316) 
0.6319081033979144

>  <source_stage>  (316) 
scored

>  <source_iter>  (316) 
11

>  <source_parent_mol>  (316) 
5

>  <source_scenario>  (316) 
1 1 2 0 0 0 0 9 0 3 5

>  <source_rank_in_scored_call>  (316) 
2

>  <source_current_task>  (316) 
close_aromatic_ring

>  <scenario>  (316) 
1 1 2 0 0 0 0 9 0 3

>  <current_task>  (316) 
no_task

$$$$

     RDKit          3D

 14 16  0  0  0  0  0  0  0  0999 V2000
  -27.9650   -6.7810  -32.0960 C   0  0  0  0  0  0  0  0  0  0  0  0
  -27.5190   -5.8030  -32.8910 N   0  0  0  0  0  0  0  0  0  0  0  0
  -28.0640   -8.1120  -32.2690 N   0  0  0  0  0  0  0  0  0  0  0  0
  -27.5090   -4.4940  -32.5100 C   0  0  0  0  0  0  0  0  0  0  0  0
  -27.9720   -4.1480  -31.2570 C   0  0  0  0  0  0  0  0  0  0  0  0
  -28.4390   -5.1630  -30.4210 C   0  0  0  0  0  0  0  0  0  0  0  0
  -28.4400   -6.4900  -30.8340 C   0  0  0  0  0  0  0  0  0  0  0  0
  -28.5930   -8.6760  -31.1420 C   0  0  0  0  0  0  0  0  0  0  0  0
  -28.8330   -7.6630  -30.2280 C   0  0  0  0  0  0  0  0  0  0  0  0
  -28.9300   -9.9970  -30.7570 C   0  0  0  0  0  0  0  0  0  0  0  0
  -29.9380  -10.7530  -31.3470 C   0  0  0  0  0  0  0  0  0  0  0  0
  -28.3830  -10.7330  -29.7310 C   0  0  0  0  0  0  0  0  0  0  0  0
  -29.0170  -11.9190  -29.6660 N   0  0  0  0  0  0  0  0  0  0  0  0
  -29.9570  -11.9470  -30.6300 C   0  0  0  0  0  0  0  0  0  0  0  0
  1  2  2  0
  1  3  1  0
  1  7  1  0
  2  4  1  0
  3  8  1  0
  4  5  2  0
  5  6  1  0
  6  7  2  0
  7  9  1  0
  8 10  1  0
  8  9  2  0
 10 11  1  0
 10 12  2  0
 11 14  2  0
 12 13  1  0
 13 14  1  0
M  END
>  <name>  (317) 
Car Nac Nd0 Car Car Car Car Car Car Car Car Car Nd0 Car

>  <indices>  (317) 
[0, 1, 2]

>  <tasks>  (317) 
probe_placing close_aromatic_ring close_aromatic_ring close_aromatic_ring close_aromatic_ring ring_built build_to_Nd0 close_aromatic_ring no_task close_aromatic_ring close_aromatic_ring close_aromatic_ring

>  <prot_clashes>  (317) 
4

>  <NBS phar>  (317) 
0.12

>  <NBS_non-phar>  (317) 
0.5536894457680839

>  <NBS>  (317) 
0.6736894457680839

>  <source_stage>  (317) 
scored

>  <source_iter>  (317) 
11

>  <source_parent_mol>  (317) 
5

>  <source_scenario>  (317) 
1 1 2 0 0 0 0 9 0 3 5

>  <source_rank_in_scored_call>  (317) 
0

>  <source_current_task>  (317) 
close_aromatic_ring

>  <scenario>  (317) 
1 1 2 0 0 0 0 9 0 3

>  <current_task>  (317) 
no_task

$$$$

     RDKit          3D

 14 16  0  0  0  0  0  0  0  0999 V2000
  -27.9130   -6.7630  -32.0740 C   0  0  0  0  0  0  0  0  0  0  0  0
  -27.3340   -5.7700  -32.7580 N   0  0  0  0  0  0  0  0  0  0  0  0
  -27.9770   -8.0900  -32.2880 N   0  0  0  0  0  0  0  0  0  0  0  0
  -27.3940   -4.4690  -32.3550 C   0  0  0  0  0  0  0  0  0  0  0  0
  -28.0720   -4.1470  -31.1980 C   0  0  0  0  0  0  0  0  0  0  0  0
  -28.6780   -5.1770  -30.4780 C   0  0  0  0  0  0  0  0  0  0  0  0
  -28.6040   -6.4960  -30.9100 C   0  0  0  0  0  0  0  0  0  0  0  0
  -28.6960   -8.6750  -31.2840 C   0  0  0  0  0  0  0  0  0  0  0  0
  -29.0960   -7.6800  -30.4070 C   0  0  0  0  0  0  0  0  0  0  0  0
  -29.0940  -10.0033  -30.9903 C   0  0  0  0  0  0  0  0  0  0  0  0
  -29.9812  -10.7452  -31.7638 C   0  0  0  0  0  0  0  0  0  0  0  0
  -28.7361  -10.7604  -29.8995 C   0  0  0  0  0  0  0  0  0  0  0  0
  -29.3705  -11.9457  -29.9696 N   0  0  0  0  0  0  0  0  0  0  0  0
  -30.1239  -11.9531  -31.0856 C   0  0  0  0  0  0  0  0  0  0  0  0
  1  2  2  0
  1  3  1  0
  1  7  1  0
  2  4  1  0
  3  8  1  0
  4  5  2  0
  5  6  1  0
  6  7  2  0
  7  9  1  0
  8 10  1  0
  8  9  2  0
 10 11  1  0
 10 12  2  0
 12 13  1  0
 11 14  2  0
 13 14  1  0
M  END
>  <name>  (318) 
Car Nac Nd0 Car Car Car Car Car Car Car Car Car Nd0 Car

>  <indices>  (318) 
[0, 1, 2]

>  <tasks>  (318) 
probe_placing close_aromatic_ring close_aromatic_ring close_aromatic_ring close_aromatic_ring ring_built build_to_Nd0 close_aromatic_ring no_task close_aromatic_ring close_aromatic_ring close_aromatic_ring

>  <prot_clashes>  (318) 
6

>  <NBS phar>  (318) 
0.1

>  <NBS_non-phar>  (318) 
0.5324445452008929

>  <NBS>  (318) 
0.6324445452008929

>  <source_stage>  (318) 
scored

>  <source_iter>  (318) 
11

>  <source_parent_mol>  (318) 
5

>  <source_scenario>  (318) 
1 1 2 0 0 0 0 9 0 3 5

>  <source_rank_in_scored_call>  (318) 
2

>  <source_current_task>  (318) 
close_aromatic_ring

>  <scenario>  (318) 
1 1 2 0 0 0 0 9 0 3

>  <current_task>  (318) 
no_task

$$$$

     RDKit          3D

 14 16  0  0  0  0  0  0  0  0999 V2000
  -27.9790   -6.7790  -32.0990 C   0  0  0  0  0  0  0  0  0  0  0  0
  -27.5210   -5.8010  -32.8880 N   0  0  0  0  0  0  0  0  0  0  0  0
  -28.0610   -8.1120  -32.2670 N   0  0  0  0  0  0  0  0  0  0  0  0
  -27.5320   -4.4900  -32.5140 C   0  0  0  0  0  0  0  0  0  0  0  0
  -28.0290   -4.1420  -31.2750 C   0  0  0  0  0  0  0  0  0  0  0  0
  -28.5080   -5.1560  -30.4460 C   0  0  0  0  0  0  0  0  0  0  0  0
  -28.4870   -6.4860  -30.8500 C   0  0  0  0  0  0  0  0  0  0  0  0
  -28.6130   -8.6740  -31.1500 C   0  0  0  0  0  0  0  0  0  0  0  0
  -28.8850   -7.6590  -30.2480 C   0  0  0  0  0  0  0  0  0  0  0  0
  -28.9430   -9.9780  -30.7730 C   0  0  0  0  0  0  0  0  0  0  0  0
  -29.9300  -10.7640  -31.3710 C   0  0  0  0  0  0  0  0  0  0  0  0
  -28.4270  -10.7250  -29.7300 C   0  0  0  0  0  0  0  0  0  0  0  0
  -29.0490  -11.9230  -29.6640 N   0  0  0  0  0  0  0  0  0  0  0  0
  -29.9600  -11.9620  -30.6490 C   0  0  0  0  0  0  0  0  0  0  0  0
  1  2  2  0
  1  3  1  0
  1  7  1  0
  2  4  1  0
  3  8  1  0
  4  5  2  0
  5  6  1  0
  6  7  2  0
  7  9  1  0
  8 10  1  0
  8  9  2  0
 10 11  1  0
 10 12  2  0
 11 14  2  0
 12 13  1  0
 13 14  1  0
M  END
>  <name>  (319) 
Car Nac Nd0 Car Car Car Car Car Car Car Car Car Nd0 Car

>  <indices>  (319) 
[0, 1, 2]

>  <tasks>  (319) 
probe_placing close_aromatic_ring close_aromatic_ring close_aromatic_ring close_aromatic_ring ring_built build_to_Nd0 close_aromatic_ring no_task close_aromatic_ring close_aromatic_ring close_aromatic_ring

>  <prot_clashes>  (319) 
5

>  <NBS phar>  (319) 
0.12

>  <NBS_non-phar>  (319) 
0.5511269228799003

>  <NBS>  (319) 
0.6711269228799003

>  <source_stage>  (319) 
scored

>  <source_iter>  (319) 
11

>  <source_parent_mol>  (319) 
5

>  <source_scenario>  (319) 
1 1 2 0 0 0 0 9 0 3 5

>  <source_rank_in_scored_call>  (319) 
0

>  <source_current_task>  (319) 
close_aromatic_ring

>  <scenario>  (319) 
1 1 2 0 0 0 0 9 0 3

>  <current_task>  (319) 
no_task

$$$$

     RDKit          3D

 14 16  0  0  0  0  0  0  0  0999 V2000
  -27.9130   -6.7630  -32.0740 C   0  0  0  0  0  0  0  0  0  0  0  0
  -27.3340   -5.7700  -32.7580 N   0  0  0  0  0  0  0  0  0  0  0  0
  -27.9770   -8.0900  -32.2880 N   0  0  0  0  0  0  0  0  0  0  0  0
  -27.3940   -4.4690  -32.3550 C   0  0  0  0  0  0  0  0  0  0  0  0
  -28.0720   -4.1470  -31.1980 C   0  0  0  0  0  0  0  0  0  0  0  0
  -28.6780   -5.1770  -30.4780 C   0  0  0  0  0  0  0  0  0  0  0  0
  -28.6040   -6.4960  -30.9100 C   0  0  0  0  0  0  0  0  0  0  0  0
  -28.6960   -8.6750  -31.2840 C   0  0  0  0  0  0  0  0  0  0  0  0
  -29.0960   -7.6800  -30.4070 C   0  0  0  0  0  0  0  0  0  0  0  0
  -29.0882   -9.9843  -30.9958 C   0  0  0  0  0  0  0  0  0  0  0  0
  -29.9772  -10.7450  -31.7580 C   0  0  0  0  0  0  0  0  0  0  0  0
  -28.7423  -10.7631  -29.9067 C   0  0  0  0  0  0  0  0  0  0  0  0
  -29.3741  -11.9557  -29.9676 N   0  0  0  0  0  0  0  0  0  0  0  0
  -30.1239  -11.9595  -31.0808 C   0  0  0  0  0  0  0  0  0  0  0  0
  1  2  2  0
  1  3  1  0
  1  7  1  0
  2  4  1  0
  3  8  1  0
  4  5  2  0
  5  6  1  0
  6  7  2  0
  7  9  1  0
  8 10  1  0
  8  9  2  0
 10 11  1  0
 10 12  2  0
 12 13  1  0
 11 14  2  0
 13 14  1  0
M  END
>  <name>  (320) 
Car Nac Nd0 Car Car Car Car Car Car Car Car Car Nd0 Car

>  <indices>  (320) 
[0, 1, 2]

>  <tasks>  (320) 
probe_placing close_aromatic_ring close_aromatic_ring close_aromatic_ring close_aromatic_ring ring_built build_to_Nd0 close_aromatic_ring no_task close_aromatic_ring close_aromatic_ring close_aromatic_ring

>  <prot_clashes>  (320) 
6

>  <NBS phar>  (320) 
0.1

>  <NBS_non-phar>  (320) 
0.533027035849435

>  <NBS>  (320) 
0.633027035849435

>  <source_stage>  (320) 
scored

>  <source_iter>  (320) 
11

>  <source_parent_mol>  (320) 
5

>  <source_scenario>  (320) 
1 1 2 0 0 0 0 9 0 3 5

>  <source_rank_in_scored_call>  (320) 
2

>  <source_current_task>  (320) 
close_aromatic_ring

>  <scenario>  (320) 
1 1 2 0 0 0 0 9 0 3

>  <current_task>  (320) 
no_task

$$$$

     RDKit          3D

 14 16  0  0  0  0  0  0  0  0999 V2000
  -27.9760   -6.7780  -32.0980 C   0  0  0  0  0  0  0  0  0  0  0  0
  -27.5200   -5.7990  -32.8870 N   0  0  0  0  0  0  0  0  0  0  0  0
  -28.0590   -8.1100  -32.2680 N   0  0  0  0  0  0  0  0  0  0  0  0
  -27.5300   -4.4880  -32.5100 C   0  0  0  0  0  0  0  0  0  0  0  0
  -28.0230   -4.1420  -31.2700 C   0  0  0  0  0  0  0  0  0  0  0  0
  -28.5000   -5.1570  -30.4410 C   0  0  0  0  0  0  0  0  0  0  0  0
  -28.4810   -6.4860  -30.8480 C   0  0  0  0  0  0  0  0  0  0  0  0
  -28.6070   -8.6740  -31.1510 C   0  0  0  0  0  0  0  0  0  0  0  0
  -28.8770   -7.6600  -30.2460 C   0  0  0  0  0  0  0  0  0  0  0  0
  -28.9410   -9.9940  -30.7690 C   0  0  0  0  0  0  0  0  0  0  0  0
  -29.9330  -10.7710  -31.3750 C   0  0  0  0  0  0  0  0  0  0  0  0
  -28.4080  -10.7240  -29.7250 C   0  0  0  0  0  0  0  0  0  0  0  0
  -29.0390  -11.9180  -29.6710 N   0  0  0  0  0  0  0  0  0  0  0  0
  -29.9540  -11.9490  -30.6590 C   0  0  0  0  0  0  0  0  0  0  0  0
  1  2  2  0
  1  3  1  0
  1  7  1  0
  2  4  1  0
  3  8  1  0
  4  5  2  0
  5  6  1  0
  6  7  2  0
  7  9  1  0
  8 10  1  0
  8  9  2  0
 10 11  1  0
 10 12  2  0
 11 14  2  0
 12 13  1  0
 13 14  1  0
M  END
>  <name>  (321) 
Car Nac Nd0 Car Car Car Car Car Car Car Car Car Nd0 Car

>  <indices>  (321) 
[0, 1, 2]

>  <tasks>  (321) 
probe_placing close_aromatic_ring close_aromatic_ring close_aromatic_ring close_aromatic_ring ring_built build_to_Nd0 close_aromatic_ring no_task close_aromatic_ring close_aromatic_ring close_aromatic_ring

>  <prot_clashes>  (321) 
4

>  <NBS phar>  (321) 
0.12

>  <NBS_non-phar>  (321) 
0.5523864201136998

>  <NBS>  (321) 
0.6723864201136998

>  <source_stage>  (321) 
scored

>  <source_iter>  (321) 
11

>  <source_parent_mol>  (321) 
5

>  <source_scenario>  (321) 
1 1 2 0 0 0 0 9 0 3 5

>  <source_rank_in_scored_call>  (321) 
0

>  <source_current_task>  (321) 
close_aromatic_ring

>  <scenario>  (321) 
1 1 2 0 0 0 0 9 0 3

>  <current_task>  (321) 
no_task

$$$$

     RDKit          3D

 14 16  0  0  0  0  0  0  0  0999 V2000
  -27.9130   -6.7630  -32.0740 C   0  0  0  0  0  0  0  0  0  0  0  0
  -27.3340   -5.7700  -32.7580 N   0  0  0  0  0  0  0  0  0  0  0  0
  -27.9770   -8.0900  -32.2880 N   0  0  0  0  0  0  0  0  0  0  0  0
  -27.3940   -4.4690  -32.3550 C   0  0  0  0  0  0  0  0  0  0  0  0
  -28.0720   -4.1470  -31.1980 C   0  0  0  0  0  0  0  0  0  0  0  0
  -28.6780   -5.1770  -30.4780 C   0  0  0  0  0  0  0  0  0  0  0  0
  -28.6040   -6.4960  -30.9100 C   0  0  0  0  0  0  0  0  0  0  0  0
  -28.6960   -8.6750  -31.2840 C   0  0  0  0  0  0  0  0  0  0  0  0
  -29.0960   -7.6800  -30.4070 C   0  0  0  0  0  0  0  0  0  0  0  0
  -29.0932  -10.0004  -30.9913 C   0  0  0  0  0  0  0  0  0  0  0  0
  -29.9844  -10.7524  -31.7633 C   0  0  0  0  0  0  0  0  0  0  0  0
  -28.7334  -10.7598  -29.8958 C   0  0  0  0  0  0  0  0  0  0  0  0
  -29.3719  -11.9479  -29.9701 N   0  0  0  0  0  0  0  0  0  0  0  0
  -30.1228  -11.9472  -31.0883 C   0  0  0  0  0  0  0  0  0  0  0  0
  1  2  2  0
  1  3  1  0
  1  7  1  0
  2  4  1  0
  3  8  1  0
  4  5  2  0
  5  6  1  0
  6  7  2  0
  7  9  1  0
  8 10  1  0
  8  9  2  0
 10 11  1  0
 10 12  2  0
 12 13  1  0
 11 14  2  0
 13 14  1  0
M  END
>  <name>  (322) 
Car Nac Nd0 Car Car Car Car Car Car Car Car Car Nd0 Car

>  <indices>  (322) 
[0, 1, 2]

>  <tasks>  (322) 
probe_placing close_aromatic_ring close_aromatic_ring close_aromatic_ring close_aromatic_ring ring_built build_to_Nd0 close_aromatic_ring no_task close_aromatic_ring close_aromatic_ring close_aromatic_ring

>  <prot_clashes>  (322) 
6

>  <NBS phar>  (322) 
0.1

>  <NBS_non-phar>  (322) 
0.5324852807181222

>  <NBS>  (322) 
0.6324852807181222

>  <source_stage>  (322) 
scored

>  <source_iter>  (322) 
11

>  <source_parent_mol>  (322) 
5

>  <source_scenario>  (322) 
1 1 2 0 0 0 0 9 0 3 5

>  <source_rank_in_scored_call>  (322) 
2

>  <source_current_task>  (322) 
close_aromatic_ring

>  <scenario>  (322) 
1 1 2 0 0 0 0 9 0 3

>  <current_task>  (322) 
no_task

$$$$

     RDKit          3D

 14 16  0  0  0  0  0  0  0  0999 V2000
  -27.9590   -6.7800  -32.0990 C   0  0  0  0  0  0  0  0  0  0  0  0
  -27.4980   -5.8040  -32.8890 N   0  0  0  0  0  0  0  0  0  0  0  0
  -28.0560   -8.1110  -32.2710 N   0  0  0  0  0  0  0  0  0  0  0  0
  -27.4930   -4.4940  -32.5100 C   0  0  0  0  0  0  0  0  0  0  0  0
  -27.9760   -4.1450  -31.2660 C   0  0  0  0  0  0  0  0  0  0  0  0
  -28.4570   -5.1580  -30.4360 C   0  0  0  0  0  0  0  0  0  0  0  0
  -28.4530   -6.4860  -30.8450 C   0  0  0  0  0  0  0  0  0  0  0  0
  -28.6030   -8.6720  -31.1520 C   0  0  0  0  0  0  0  0  0  0  0  0
  -28.8570   -7.6570  -30.2440 C   0  0  0  0  0  0  0  0  0  0  0  0
  -28.9450   -9.9690  -30.7810 C   0  0  0  0  0  0  0  0  0  0  0  0
  -29.9330  -10.7570  -31.3520 C   0  0  0  0  0  0  0  0  0  0  0  0
  -28.4170  -10.7250  -29.7350 C   0  0  0  0  0  0  0  0  0  0  0  0
  -29.0580  -11.9160  -29.6760 N   0  0  0  0  0  0  0  0  0  0  0  0
  -29.9940  -11.9550  -30.6630 C   0  0  0  0  0  0  0  0  0  0  0  0
  1  2  2  0
  1  3  1  0
  1  7  1  0
  2  4  1  0
  3  8  1  0
  4  5  2  0
  5  6  1  0
  6  7  2  0
  7  9  1  0
  8 10  1  0
  8  9  2  0
 10 11  1  0
 10 12  2  0
 11 14  2  0
 12 13  1  0
 13 14  1  0
M  END
>  <name>  (323) 
Car Nac Nd0 Car Car Car Car Car Car Car Car Car Nd0 Car

>  <indices>  (323) 
[0, 1, 2]

>  <tasks>  (323) 
probe_placing close_aromatic_ring close_aromatic_ring close_aromatic_ring close_aromatic_ring ring_built build_to_Nd0 close_aromatic_ring no_task close_aromatic_ring close_aromatic_ring close_aromatic_ring

>  <prot_clashes>  (323) 
4

>  <NBS phar>  (323) 
0.12

>  <NBS_non-phar>  (323) 
0.5435280459267753

>  <NBS>  (323) 
0.6635280459267753

>  <source_stage>  (323) 
scored

>  <source_iter>  (323) 
11

>  <source_parent_mol>  (323) 
5

>  <source_scenario>  (323) 
1 1 2 0 0 0 0 9 0 3 5

>  <source_rank_in_scored_call>  (323) 
0

>  <source_current_task>  (323) 
close_aromatic_ring

>  <scenario>  (323) 
1 1 2 0 0 0 0 9 0 3

>  <current_task>  (323) 
no_task

$$$$

     RDKit          3D

 14 16  0  0  0  0  0  0  0  0999 V2000
  -27.9130   -6.7630  -32.0740 C   0  0  0  0  0  0  0  0  0  0  0  0
  -27.3340   -5.7700  -32.7580 N   0  0  0  0  0  0  0  0  0  0  0  0
  -27.9770   -8.0900  -32.2880 N   0  0  0  0  0  0  0  0  0  0  0  0
  -27.3940   -4.4690  -32.3550 C   0  0  0  0  0  0  0  0  0  0  0  0
  -28.0720   -4.1470  -31.1980 C   0  0  0  0  0  0  0  0  0  0  0  0
  -28.6780   -5.1770  -30.4780 C   0  0  0  0  0  0  0  0  0  0  0  0
  -28.6040   -6.4960  -30.9100 C   0  0  0  0  0  0  0  0  0  0  0  0
  -28.6960   -8.6750  -31.2840 C   0  0  0  0  0  0  0  0  0  0  0  0
  -29.0960   -7.6800  -30.4070 C   0  0  0  0  0  0  0  0  0  0  0  0
  -29.0888   -9.9788  -31.0007 C   0  0  0  0  0  0  0  0  0  0  0  0
  -29.9699  -10.7540  -31.7406 C   0  0  0  0  0  0  0  0  0  0  0  0
  -28.7352  -10.7575  -29.9002 C   0  0  0  0  0  0  0  0  0  0  0  0
  -29.3734  -11.9502  -29.9706 N   0  0  0  0  0  0  0  0  0  0  0  0
  -30.1384  -11.9671  -31.0967 C   0  0  0  0  0  0  0  0  0  0  0  0
  1  2  2  0
  1  3  1  0
  1  7  1  0
  2  4  1  0
  3  8  1  0
  4  5  2  0
  5  6  1  0
  6  7  2  0
  7  9  1  0
  8 10  1  0
  8  9  2  0
 10 11  1  0
 10 12  2  0
 12 13  1  0
 11 14  2  0
 13 14  1  0
M  END
>  <name>  (324) 
Car Nac Nd0 Car Car Car Car Car Car Car Car Car Nd0 Car

>  <indices>  (324) 
[0, 1, 2]

>  <tasks>  (324) 
probe_placing close_aromatic_ring close_aromatic_ring close_aromatic_ring close_aromatic_ring ring_built build_to_Nd0 close_aromatic_ring no_task close_aromatic_ring close_aromatic_ring close_aromatic_ring

>  <prot_clashes>  (324) 
6

>  <NBS phar>  (324) 
0.1

>  <NBS_non-phar>  (324) 
0.5323611327580043

>  <NBS>  (324) 
0.6323611327580043

>  <source_stage>  (324) 
scored

>  <source_iter>  (324) 
11

>  <source_parent_mol>  (324) 
5

>  <source_scenario>  (324) 
1 1 2 0 0 0 0 9 0 3 5

>  <source_rank_in_scored_call>  (324) 
2

>  <source_current_task>  (324) 
close_aromatic_ring

>  <scenario>  (324) 
1 1 2 0 0 0 0 9 0 3

>  <current_task>  (324) 
no_task

$$$$

     RDKit          3D

 14 16  0  0  0  0  0  0  0  0999 V2000
  -27.9710   -6.7780  -32.1090 C   0  0  0  0  0  0  0  0  0  0  0  0
  -27.5170   -5.7970  -32.8970 N   0  0  0  0  0  0  0  0  0  0  0  0
  -28.0640   -8.1090  -32.2860 N   0  0  0  0  0  0  0  0  0  0  0  0
  -27.5140   -4.4890  -32.5120 C   0  0  0  0  0  0  0  0  0  0  0  0
  -27.9930   -4.1470  -31.2640 C   0  0  0  0  0  0  0  0  0  0  0  0
  -28.4670   -5.1650  -30.4360 C   0  0  0  0  0  0  0  0  0  0  0  0
  -28.4600   -6.4910  -30.8510 C   0  0  0  0  0  0  0  0  0  0  0  0
  -28.6040   -8.6760  -31.1670 C   0  0  0  0  0  0  0  0  0  0  0  0
  -28.8580   -7.6660  -30.2530 C   0  0  0  0  0  0  0  0  0  0  0  0
  -28.9470   -9.9850  -30.8030 C   0  0  0  0  0  0  0  0  0  0  0  0
  -29.9320  -10.7620  -31.3770 C   0  0  0  0  0  0  0  0  0  0  0  0
  -28.3990  -10.7310  -29.7550 C   0  0  0  0  0  0  0  0  0  0  0  0
  -29.0390  -11.9350  -29.6970 N   0  0  0  0  0  0  0  0  0  0  0  0
  -29.9790  -11.9550  -30.6890 C   0  0  0  0  0  0  0  0  0  0  0  0
  1  2  2  0
  1  3  1  0
  1  7  1  0
  2  4  1  0
  3  8  1  0
  4  5  2  0
  5  6  1  0
  6  7  2  0
  7  9  1  0
  8 10  1  0
  8  9  2  0
 10 11  1  0
 10 12  2  0
 11 14  2  0
 12 13  1  0
 13 14  1  0
M  END
>  <name>  (325) 
Car Nac Nd0 Car Car Car Car Car Car Car Car Car Nd0 Car

>  <indices>  (325) 
[0, 1, 2]

>  <tasks>  (325) 
probe_placing close_aromatic_ring close_aromatic_ring close_aromatic_ring close_aromatic_ring ring_built build_to_Nd0 close_aromatic_ring no_task close_aromatic_ring close_aromatic_ring close_aromatic_ring

>  <prot_clashes>  (325) 
4

>  <NBS phar>  (325) 
0.12

>  <NBS_non-phar>  (325) 
0.5347981112343925

>  <NBS>  (325) 
0.6547981112343925

>  <source_stage>  (325) 
scored

>  <source_iter>  (325) 
11

>  <source_parent_mol>  (325) 
5

>  <source_scenario>  (325) 
1 1 2 0 0 0 0 9 0 3 5

>  <source_rank_in_scored_call>  (325) 
1

>  <source_current_task>  (325) 
close_aromatic_ring

>  <scenario>  (325) 
1 1 2 0 0 0 0 9 0 3

>  <current_task>  (325) 
no_task

$$$$

     RDKit          3D

 14 16  0  0  0  0  0  0  0  0999 V2000
  -27.9130   -6.7630  -32.0740 C   0  0  0  0  0  0  0  0  0  0  0  0
  -27.3340   -5.7700  -32.7580 N   0  0  0  0  0  0  0  0  0  0  0  0
  -27.9770   -8.0900  -32.2880 N   0  0  0  0  0  0  0  0  0  0  0  0
  -27.3940   -4.4690  -32.3550 C   0  0  0  0  0  0  0  0  0  0  0  0
  -28.0720   -4.1470  -31.1980 C   0  0  0  0  0  0  0  0  0  0  0  0
  -28.6780   -5.1770  -30.4780 C   0  0  0  0  0  0  0  0  0  0  0  0
  -28.6040   -6.4960  -30.9100 C   0  0  0  0  0  0  0  0  0  0  0  0
  -28.6960   -8.6750  -31.2840 C   0  0  0  0  0  0  0  0  0  0  0  0
  -29.0960   -7.6800  -30.4070 C   0  0  0  0  0  0  0  0  0  0  0  0
  -29.0963   -9.9884  -31.0047 C   0  0  0  0  0  0  0  0  0  0  0  0
  -29.9732  -10.7507  -31.7479 C   0  0  0  0  0  0  0  0  0  0  0  0
  -28.7300  -10.7553  -29.8940 C   0  0  0  0  0  0  0  0  0  0  0  0
  -29.3725  -11.9572  -29.9642 N   0  0  0  0  0  0  0  0  0  0  0  0
  -30.1337  -11.9560  -31.0980 C   0  0  0  0  0  0  0  0  0  0  0  0
  1  2  2  0
  1  3  1  0
  1  7  1  0
  2  4  1  0
  3  8  1  0
  4  5  2  0
  5  6  1  0
  6  7  2  0
  7  9  1  0
  8 10  1  0
  8  9  2  0
 10 11  1  0
 10 12  2  0
 12 13  1  0
 11 14  2  0
 13 14  1  0
M  END
>  <name>  (326) 
Car Nac Nd0 Car Car Car Car Car Car Car Car Car Nd0 Car

>  <indices>  (326) 
[0, 1, 2]

>  <tasks>  (326) 
probe_placing close_aromatic_ring close_aromatic_ring close_aromatic_ring close_aromatic_ring ring_built build_to_Nd0 close_aromatic_ring no_task close_aromatic_ring close_aromatic_ring close_aromatic_ring

>  <prot_clashes>  (326) 
6

>  <NBS phar>  (326) 
0.1

>  <NBS_non-phar>  (326) 
0.5327436923980713

>  <NBS>  (326) 
0.6327436923980713

>  <source_stage>  (326) 
scored

>  <source_iter>  (326) 
11

>  <source_parent_mol>  (326) 
5

>  <source_scenario>  (326) 
1 1 2 0 0 0 0 9 0 3 5

>  <source_rank_in_scored_call>  (326) 
2

>  <source_current_task>  (326) 
close_aromatic_ring

>  <scenario>  (326) 
1 1 2 0 0 0 0 9 0 3

>  <current_task>  (326) 
no_task

$$$$

     RDKit          3D

 14 16  0  0  0  0  0  0  0  0999 V2000
  -27.9800   -6.7810  -32.0990 C   0  0  0  0  0  0  0  0  0  0  0  0
  -27.5280   -5.8010  -32.8890 N   0  0  0  0  0  0  0  0  0  0  0  0
  -28.0620   -8.1130  -32.2710 N   0  0  0  0  0  0  0  0  0  0  0  0
  -27.5370   -4.4910  -32.5110 C   0  0  0  0  0  0  0  0  0  0  0  0
  -28.0250   -4.1460  -31.2680 C   0  0  0  0  0  0  0  0  0  0  0  0
  -28.4970   -5.1630  -30.4370 C   0  0  0  0  0  0  0  0  0  0  0  0
  -28.4790   -6.4920  -30.8460 C   0  0  0  0  0  0  0  0  0  0  0  0
  -28.6050   -8.6800  -31.1520 C   0  0  0  0  0  0  0  0  0  0  0  0
  -28.8710   -7.6670  -30.2450 C   0  0  0  0  0  0  0  0  0  0  0  0
  -28.9380   -9.9880  -30.7790 C   0  0  0  0  0  0  0  0  0  0  0  0
  -29.9280  -10.7790  -31.3680 C   0  0  0  0  0  0  0  0  0  0  0  0
  -28.3990  -10.7380  -29.7270 C   0  0  0  0  0  0  0  0  0  0  0  0
  -29.0280  -11.9260  -29.6730 N   0  0  0  0  0  0  0  0  0  0  0  0
  -29.9470  -11.9580  -30.6560 C   0  0  0  0  0  0  0  0  0  0  0  0
  1  2  2  0
  1  3  1  0
  1  7  1  0
  2  4  1  0
  3  8  1  0
  4  5  2  0
  5  6  1  0
  6  7  2  0
  7  9  1  0
  8 10  1  0
  8  9  2  0
 10 11  1  0
 10 12  2  0
 11 14  2  0
 12 13  1  0
 13 14  1  0
M  END
>  <name>  (327) 
Car Nac Nd0 Car Car Car Car Car Car Car Car Car Nd0 Car

>  <indices>  (327) 
[0, 1, 2]

>  <tasks>  (327) 
probe_placing close_aromatic_ring close_aromatic_ring close_aromatic_ring close_aromatic_ring ring_built build_to_Nd0 close_aromatic_ring no_task close_aromatic_ring close_aromatic_ring close_aromatic_ring

>  <prot_clashes>  (327) 
4

>  <NBS phar>  (327) 
0.12

>  <NBS_non-phar>  (327) 
0.5510658536638532

>  <NBS>  (327) 
0.6710658536638532

>  <source_stage>  (327) 
scored

>  <source_iter>  (327) 
11

>  <source_parent_mol>  (327) 
5

>  <source_scenario>  (327) 
1 1 2 0 0 0 0 9 0 3 5

>  <source_rank_in_scored_call>  (327) 
1

>  <source_current_task>  (327) 
close_aromatic_ring

>  <scenario>  (327) 
1 1 2 0 0 0 0 9 0 3

>  <current_task>  (327) 
no_task

$$$$

     RDKit          3D

 14 16  0  0  0  0  0  0  0  0999 V2000
  -27.9130   -6.7630  -32.0740 C   0  0  0  0  0  0  0  0  0  0  0  0
  -27.3340   -5.7700  -32.7580 N   0  0  0  0  0  0  0  0  0  0  0  0
  -27.9770   -8.0900  -32.2880 N   0  0  0  0  0  0  0  0  0  0  0  0
  -27.3940   -4.4690  -32.3550 C   0  0  0  0  0  0  0  0  0  0  0  0
  -28.0720   -4.1470  -31.1980 C   0  0  0  0  0  0  0  0  0  0  0  0
  -28.6780   -5.1770  -30.4780 C   0  0  0  0  0  0  0  0  0  0  0  0
  -28.6040   -6.4960  -30.9100 C   0  0  0  0  0  0  0  0  0  0  0  0
  -28.6960   -8.6750  -31.2840 C   0  0  0  0  0  0  0  0  0  0  0  0
  -29.0960   -7.6800  -30.4070 C   0  0  0  0  0  0  0  0  0  0  0  0
  -29.0927   -9.9879  -30.9997 C   0  0  0  0  0  0  0  0  0  0  0  0
  -29.9819  -10.7539  -31.7585 C   0  0  0  0  0  0  0  0  0  0  0  0
  -28.7355  -10.7670  -29.8936 C   0  0  0  0  0  0  0  0  0  0  0  0
  -29.3727  -11.9494  -29.9701 N   0  0  0  0  0  0  0  0  0  0  0  0
  -30.1230  -11.9494  -31.0869 C   0  0  0  0  0  0  0  0  0  0  0  0
  1  2  2  0
  1  3  1  0
  1  7  1  0
  2  4  1  0
  3  8  1  0
  4  5  2  0
  5  6  1  0
  6  7  2  0
  7  9  1  0
  8 10  1  0
  8  9  2  0
 10 11  1  0
 10 12  2  0
 12 13  1  0
 11 14  2  0
 13 14  1  0
M  END
>  <name>  (328) 
Car Nac Nd0 Car Car Car Car Car Car Car Car Car Nd0 Car

>  <indices>  (328) 
[0, 1, 2]

>  <tasks>  (328) 
probe_placing close_aromatic_ring close_aromatic_ring close_aromatic_ring close_aromatic_ring ring_built build_to_Nd0 close_aromatic_ring no_task close_aromatic_ring close_aromatic_ring close_aromatic_ring

>  <prot_clashes>  (328) 
6

>  <NBS phar>  (328) 
0.1

>  <NBS_non-phar>  (328) 
0.5325497218540737

>  <NBS>  (328) 
0.6325497218540737

>  <source_stage>  (328) 
scored

>  <source_iter>  (328) 
11

>  <source_parent_mol>  (328) 
5

>  <source_scenario>  (328) 
1 1 2 0 0 0 0 9 0 3 5

>  <source_rank_in_scored_call>  (328) 
2

>  <source_current_task>  (328) 
close_aromatic_ring

>  <scenario>  (328) 
1 1 2 0 0 0 0 9 0 3

>  <current_task>  (328) 
no_task

$$$$

     RDKit          3D

 14 16  0  0  0  0  0  0  0  0999 V2000
  -27.9900   -6.7840  -32.1010 C   0  0  0  0  0  0  0  0  0  0  0  0
  -27.5410   -5.8000  -32.8880 N   0  0  0  0  0  0  0  0  0  0  0  0
  -28.0580   -8.1170  -32.2710 N   0  0  0  0  0  0  0  0  0  0  0  0
  -27.5660   -4.4900  -32.5120 C   0  0  0  0  0  0  0  0  0  0  0  0
  -28.0690   -4.1480  -31.2740 C   0  0  0  0  0  0  0  0  0  0  0  0
  -28.5390   -5.1680  -30.4460 C   0  0  0  0  0  0  0  0  0  0  0  0
  -28.5040   -6.4970  -30.8530 C   0  0  0  0  0  0  0  0  0  0  0  0
  -28.6060   -8.6870  -31.1560 C   0  0  0  0  0  0  0  0  0  0  0  0
  -28.8910   -7.6750  -30.2530 C   0  0  0  0  0  0  0  0  0  0  0  0
  -28.9330  -10.0180  -30.7750 C   0  0  0  0  0  0  0  0  0  0  0  0
  -29.9040  -10.7990  -31.3790 C   0  0  0  0  0  0  0  0  0  0  0  0
  -28.3790  -10.7210  -29.7200 C   0  0  0  0  0  0  0  0  0  0  0  0
  -29.0160  -11.9280  -29.6870 N   0  0  0  0  0  0  0  0  0  0  0  0
  -29.9290  -11.9850  -30.6740 C   0  0  0  0  0  0  0  0  0  0  0  0
  1  2  2  0
  1  3  1  0
  1  7  1  0
  2  4  1  0
  3  8  1  0
  4  5  2  0
  5  6  1  0
  6  7  2  0
  7  9  1  0
  8 10  1  0
  8  9  2  0
 10 11  1  0
 10 12  2  0
 11 14  2  0
 12 13  1  0
 13 14  1  0
M  END
>  <name>  (329) 
Car Nac Nd0 Car Car Car Car Car Car Car Car Car Nd0 Car

>  <indices>  (329) 
[0, 1, 2]

>  <tasks>  (329) 
probe_placing close_aromatic_ring close_aromatic_ring close_aromatic_ring close_aromatic_ring ring_built build_to_Nd0 close_aromatic_ring no_task close_aromatic_ring close_aromatic_ring close_aromatic_ring

>  <prot_clashes>  (329) 
4

>  <NBS phar>  (329) 
0.12

>  <NBS_non-phar>  (329) 
0.548647267477853

>  <NBS>  (329) 
0.668647267477853

>  <source_stage>  (329) 
scored

>  <source_iter>  (329) 
11

>  <source_parent_mol>  (329) 
5

>  <source_scenario>  (329) 
1 1 2 0 0 0 0 9 0 3 5

>  <source_rank_in_scored_call>  (329) 
0

>  <source_current_task>  (329) 
close_aromatic_ring

>  <scenario>  (329) 
1 1 2 0 0 0 0 9 0 3

>  <current_task>  (329) 
no_task

$$$$

     RDKit          3D

 14 16  0  0  0  0  0  0  0  0999 V2000
  -27.9130   -6.7630  -32.0740 C   0  0  0  0  0  0  0  0  0  0  0  0
  -27.3340   -5.7700  -32.7580 N   0  0  0  0  0  0  0  0  0  0  0  0
  -27.9770   -8.0900  -32.2880 N   0  0  0  0  0  0  0  0  0  0  0  0
  -27.3940   -4.4690  -32.3550 C   0  0  0  0  0  0  0  0  0  0  0  0
  -28.0720   -4.1470  -31.1980 C   0  0  0  0  0  0  0  0  0  0  0  0
  -28.6780   -5.1770  -30.4780 C   0  0  0  0  0  0  0  0  0  0  0  0
  -28.6040   -6.4960  -30.9100 C   0  0  0  0  0  0  0  0  0  0  0  0
  -28.6960   -8.6750  -31.2840 C   0  0  0  0  0  0  0  0  0  0  0  0
  -29.0960   -7.6800  -30.4070 C   0  0  0  0  0  0  0  0  0  0  0  0
  -29.0976  -10.0081  -30.9921 C   0  0  0  0  0  0  0  0  0  0  0  0
  -29.9798  -10.7535  -31.7557 C   0  0  0  0  0  0  0  0  0  0  0  0
  -28.7208  -10.7485  -29.8853 C   0  0  0  0  0  0  0  0  0  0  0  0
  -29.3764  -11.9420  -29.9812 N   0  0  0  0  0  0  0  0  0  0  0  0
  -30.1311  -11.9555  -31.0945 C   0  0  0  0  0  0  0  0  0  0  0  0
  1  2  2  0
  1  3  1  0
  1  7  1  0
  2  4  1  0
  3  8  1  0
  4  5  2  0
  5  6  1  0
  6  7  2  0
  7  9  1  0
  8 10  1  0
  8  9  2  0
 10 11  1  0
 10 12  2  0
 12 13  1  0
 11 14  2  0
 13 14  1  0
M  END
>  <name>  (330) 
Car Nac Nd0 Car Car Car Car Car Car Car Car Car Nd0 Car

>  <indices>  (330) 
[0, 1, 2]

>  <tasks>  (330) 
probe_placing close_aromatic_ring close_aromatic_ring close_aromatic_ring close_aromatic_ring ring_built build_to_Nd0 close_aromatic_ring no_task close_aromatic_ring close_aromatic_ring close_aromatic_ring

>  <prot_clashes>  (330) 
6

>  <NBS phar>  (330) 
0.1

>  <NBS_non-phar>  (330) 
0.5317630767822266

>  <NBS>  (330) 
0.6317630767822265

>  <source_stage>  (330) 
scored

>  <source_iter>  (330) 
11

>  <source_parent_mol>  (330) 
5

>  <source_scenario>  (330) 
1 1 2 0 0 0 0 9 0 3 5

>  <source_rank_in_scored_call>  (330) 
2

>  <source_current_task>  (330) 
close_aromatic_ring

>  <scenario>  (330) 
1 1 2 0 0 0 0 9 0 3

>  <current_task>  (330) 
no_task

$$$$

     RDKit          3D

 14 16  0  0  0  0  0  0  0  0999 V2000
  -27.9710   -6.7700  -32.1070 C   0  0  0  0  0  0  0  0  0  0  0  0
  -27.5080   -5.7890  -32.8900 N   0  0  0  0  0  0  0  0  0  0  0  0
  -28.0650   -8.1010  -32.2850 N   0  0  0  0  0  0  0  0  0  0  0  0
  -27.5070   -4.4820  -32.5050 C   0  0  0  0  0  0  0  0  0  0  0  0
  -27.9980   -4.1390  -31.2630 C   0  0  0  0  0  0  0  0  0  0  0  0
  -28.4830   -5.1560  -30.4400 C   0  0  0  0  0  0  0  0  0  0  0  0
  -28.4740   -6.4820  -30.8550 C   0  0  0  0  0  0  0  0  0  0  0  0
  -28.6180   -8.6680  -31.1720 C   0  0  0  0  0  0  0  0  0  0  0  0
  -28.8790   -7.6570  -30.2610 C   0  0  0  0  0  0  0  0  0  0  0  0
  -28.9600   -9.9850  -30.7940 C   0  0  0  0  0  0  0  0  0  0  0  0
  -29.9400  -10.7540  -31.3930 C   0  0  0  0  0  0  0  0  0  0  0  0
  -28.4160  -10.7070  -29.7490 C   0  0  0  0  0  0  0  0  0  0  0  0
  -29.0480  -11.8980  -29.7020 N   0  0  0  0  0  0  0  0  0  0  0  0
  -29.9720  -11.9580  -30.6800 C   0  0  0  0  0  0  0  0  0  0  0  0
  1  2  2  0
  1  3  1  0
  1  7  1  0
  2  4  1  0
  3  8  1  0
  4  5  2  0
  5  6  1  0
  6  7  2  0
  7  9  1  0
  8 10  1  0
  8  9  2  0
 10 11  1  0
 10 12  2  0
 11 14  2  0
 12 13  1  0
 13 14  1  0
M  END
>  <name>  (331) 
Car Nac Nd0 Car Car Car Car Car Car Car Car Car Nd0 Car

>  <indices>  (331) 
[0, 1, 2]

>  <tasks>  (331) 
probe_placing close_aromatic_ring close_aromatic_ring close_aromatic_ring close_aromatic_ring ring_built build_to_Nd0 close_aromatic_ring no_task close_aromatic_ring close_aromatic_ring close_aromatic_ring

>  <prot_clashes>  (331) 
5

>  <NBS phar>  (331) 
0.12

>  <NBS_non-phar>  (331) 
0.5374961239950997

>  <NBS>  (331) 
0.6574961239950997

>  <source_stage>  (331) 
scored

>  <source_iter>  (331) 
11

>  <source_parent_mol>  (331) 
5

>  <source_scenario>  (331) 
1 1 2 0 0 0 0 9 0 3 5

>  <source_rank_in_scored_call>  (331) 
0

>  <source_current_task>  (331) 
close_aromatic_ring

>  <scenario>  (331) 
1 1 2 0 0 0 0 9 0 3

>  <current_task>  (331) 
no_task

$$$$

     RDKit          3D

 14 16  0  0  0  0  0  0  0  0999 V2000
  -27.9130   -6.7630  -32.0740 C   0  0  0  0  0  0  0  0  0  0  0  0
  -27.3340   -5.7700  -32.7580 N   0  0  0  0  0  0  0  0  0  0  0  0
  -27.9770   -8.0900  -32.2880 N   0  0  0  0  0  0  0  0  0  0  0  0
  -27.3940   -4.4690  -32.3550 C   0  0  0  0  0  0  0  0  0  0  0  0
  -28.0720   -4.1470  -31.1980 C   0  0  0  0  0  0  0  0  0  0  0  0
  -28.6780   -5.1770  -30.4780 C   0  0  0  0  0  0  0  0  0  0  0  0
  -28.6040   -6.4960  -30.9100 C   0  0  0  0  0  0  0  0  0  0  0  0
  -28.6960   -8.6750  -31.2840 C   0  0  0  0  0  0  0  0  0  0  0  0
  -29.0960   -7.6800  -30.4070 C   0  0  0  0  0  0  0  0  0  0  0  0
  -29.0916   -9.9984  -30.9873 C   0  0  0  0  0  0  0  0  0  0  0  0
  -29.9666  -10.7539  -31.7435 C   0  0  0  0  0  0  0  0  0  0  0  0
  -28.7164  -10.7391  -29.8830 C   0  0  0  0  0  0  0  0  0  0  0  0
  -29.3481  -11.9304  -29.9557 N   0  0  0  0  0  0  0  0  0  0  0  0
  -30.1093  -11.9700  -31.0660 C   0  0  0  0  0  0  0  0  0  0  0  0
  1  2  2  0
  1  3  1  0
  1  7  1  0
  2  4  1  0
  3  8  1  0
  4  5  2  0
  5  6  1  0
  6  7  2  0
  7  9  1  0
  8 10  1  0
  8  9  2  0
 10 11  1  0
 10 12  2  0
 12 13  1  0
 13 14  1  0
 11 14  2  0
M  END
>  <name>  (332) 
Car Nac Nd0 Car Car Car Car Car Car Car Car Car Nd0 Car

>  <indices>  (332) 
[0, 1, 2]

>  <tasks>  (332) 
probe_placing close_aromatic_ring close_aromatic_ring close_aromatic_ring close_aromatic_ring ring_built build_to_Nd0 close_aromatic_ring no_task close_aromatic_ring close_aromatic_ring close_aromatic_ring

>  <prot_clashes>  (332) 
6

>  <NBS phar>  (332) 
0.1

>  <NBS_non-phar>  (332) 
0.5320943423679897

>  <NBS>  (332) 
0.6320943423679897

>  <source_stage>  (332) 
scored

>  <source_iter>  (332) 
11

>  <source_parent_mol>  (332) 
5

>  <source_scenario>  (332) 
1 1 2 0 0 0 0 9 0 3 5

>  <source_rank_in_scored_call>  (332) 
2

>  <source_current_task>  (332) 
close_aromatic_ring

>  <scenario>  (332) 
1 1 2 0 0 0 0 9 0 3

>  <current_task>  (332) 
no_task

$$$$

     RDKit          3D

 14 16  0  0  0  0  0  0  0  0999 V2000
  -27.9690   -6.7780  -32.1010 C   0  0  0  0  0  0  0  0  0  0  0  0
  -27.5100   -5.7990  -32.8880 N   0  0  0  0  0  0  0  0  0  0  0  0
  -28.0580   -8.1100  -32.2730 N   0  0  0  0  0  0  0  0  0  0  0  0
  -27.5150   -4.4900  -32.5090 C   0  0  0  0  0  0  0  0  0  0  0  0
  -28.0070   -4.1440  -31.2680 C   0  0  0  0  0  0  0  0  0  0  0  0
  -28.4870   -5.1590  -30.4400 C   0  0  0  0  0  0  0  0  0  0  0  0
  -28.4730   -6.4870  -30.8490 C   0  0  0  0  0  0  0  0  0  0  0  0
  -28.6080   -8.6740  -31.1570 C   0  0  0  0  0  0  0  0  0  0  0  0
  -28.8730   -7.6610  -30.2500 C   0  0  0  0  0  0  0  0  0  0  0  0
  -28.9530  -10.0040  -30.7780 C   0  0  0  0  0  0  0  0  0  0  0  0
  -29.9380  -10.7580  -31.3840 C   0  0  0  0  0  0  0  0  0  0  0  0
  -28.4080  -10.7180  -29.7310 C   0  0  0  0  0  0  0  0  0  0  0  0
  -29.0570  -11.9190  -29.6880 N   0  0  0  0  0  0  0  0  0  0  0  0
  -29.9700  -11.9520  -30.6700 C   0  0  0  0  0  0  0  0  0  0  0  0
  1  2  2  0
  1  3  1  0
  1  7  1  0
  2  4  1  0
  3  8  1  0
  4  5  2  0
  5  6  1  0
  6  7  2  0
  7  9  1  0
  8 10  1  0
  8  9  2  0
 10 11  1  0
 10 12  2  0
 11 14  2  0
 12 13  1  0
 13 14  1  0
M  END
>  <name>  (333) 
Car Nac Nd0 Car Car Car Car Car Car Car Car Car Nd0 Car

>  <indices>  (333) 
[0, 1, 2]

>  <tasks>  (333) 
probe_placing close_aromatic_ring close_aromatic_ring close_aromatic_ring close_aromatic_ring ring_built build_to_Nd0 close_aromatic_ring no_task close_aromatic_ring close_aromatic_ring close_aromatic_ring

>  <prot_clashes>  (333) 
4

>  <NBS phar>  (333) 
0.12

>  <NBS_non-phar>  (333) 
0.5454550130026681

>  <NBS>  (333) 
0.6654550130026681

>  <source_stage>  (333) 
scored

>  <source_iter>  (333) 
11

>  <source_parent_mol>  (333) 
5

>  <source_scenario>  (333) 
1 1 2 0 0 0 0 9 0 3 5

>  <source_rank_in_scored_call>  (333) 
1

>  <source_current_task>  (333) 
close_aromatic_ring

>  <scenario>  (333) 
1 1 2 0 0 0 0 9 0 3

>  <current_task>  (333) 
no_task

$$$$

     RDKit          3D

 14 16  0  0  0  0  0  0  0  0999 V2000
  -27.9130   -6.7630  -32.0740 C   0  0  0  0  0  0  0  0  0  0  0  0
  -27.3340   -5.7700  -32.7580 N   0  0  0  0  0  0  0  0  0  0  0  0
  -27.9770   -8.0900  -32.2880 N   0  0  0  0  0  0  0  0  0  0  0  0
  -27.3940   -4.4690  -32.3550 C   0  0  0  0  0  0  0  0  0  0  0  0
  -28.0720   -4.1470  -31.1980 C   0  0  0  0  0  0  0  0  0  0  0  0
  -28.6780   -5.1770  -30.4780 C   0  0  0  0  0  0  0  0  0  0  0  0
  -28.6040   -6.4960  -30.9100 C   0  0  0  0  0  0  0  0  0  0  0  0
  -28.6960   -8.6750  -31.2840 C   0  0  0  0  0  0  0  0  0  0  0  0
  -29.0960   -7.6800  -30.4070 C   0  0  0  0  0  0  0  0  0  0  0  0
  -29.0994  -10.0101  -30.9933 C   0  0  0  0  0  0  0  0  0  0  0  0
  -29.9795  -10.7452  -31.7614 C   0  0  0  0  0  0  0  0  0  0  0  0
  -28.7247  -10.7503  -29.8898 C   0  0  0  0  0  0  0  0  0  0  0  0
  -29.3761  -11.9479  -29.9764 N   0  0  0  0  0  0  0  0  0  0  0  0
  -30.1260  -11.9541  -31.0879 C   0  0  0  0  0  0  0  0  0  0  0  0
  1  2  2  0
  1  3  1  0
  1  7  1  0
  2  4  1  0
  3  8  1  0
  4  5  2  0
  5  6  1  0
  6  7  2  0
  7  9  1  0
  8 10  1  0
  8  9  2  0
 10 11  1  0
 10 12  2  0
 12 13  1  0
 11 14  2  0
 13 14  1  0
M  END
>  <name>  (334) 
Car Nac Nd0 Car Car Car Car Car Car Car Car Car Nd0 Car

>  <indices>  (334) 
[0, 1, 2]

>  <tasks>  (334) 
probe_placing close_aromatic_ring close_aromatic_ring close_aromatic_ring close_aromatic_ring ring_built build_to_Nd0 close_aromatic_ring no_task close_aromatic_ring close_aromatic_ring close_aromatic_ring

>  <prot_clashes>  (334) 
6

>  <NBS phar>  (334) 
0.1

>  <NBS_non-phar>  (334) 
0.5322323526654925

>  <NBS>  (334) 
0.6322323526654925

>  <source_stage>  (334) 
scored

>  <source_iter>  (334) 
11

>  <source_parent_mol>  (334) 
5

>  <source_scenario>  (334) 
1 1 2 0 0 0 0 9 0 3 5

>  <source_rank_in_scored_call>  (334) 
2

>  <source_current_task>  (334) 
close_aromatic_ring

>  <scenario>  (334) 
1 1 2 0 0 0 0 9 0 3

>  <current_task>  (334) 
no_task

$$$$
