
     RDKit          3D

 12 13  0  0  0  0  0  0  0  0999 V2000
  -28.3030   -7.2450  -31.6120 C   0  0  0  0  0  0  0  0  0  0  0  0
  -27.6950   -6.4620  -32.5130 N   0  0  0  0  0  0  0  0  0  0  0  0
  -28.3340   -8.6460  -31.7630 N   0  0  0  0  0  0  0  0  0  0  0  0
  -27.7340   -5.2220  -32.1690 O   0  0  0  0  0  0  0  0  0  0  0  0
  -28.3790   -5.1440  -31.0120 C   0  0  0  0  0  0  0  0  0  0  0  0
  -28.7410   -6.4070  -30.6510 N   0  0  0  0  0  0  0  0  0  0  0  0
  -28.2770   -9.4630  -30.6850 C   0  0  0  0  0  0  0  0  0  0  0  0
  -28.0350   -8.9700  -29.4480 N   0  0  0  0  0  0  0  0  0  0  0  0
  -27.9860   -9.7740  -28.3690 C   0  0  0  0  0  0  0  0  0  0  0  0
  -28.1850  -11.1360  -28.4970 C   0  0  0  0  0  0  0  0  0  0  0  0
  -28.4380  -11.6920  -29.7500 C   0  0  0  0  0  0  0  0  0  0  0  0
  -28.4780  -10.8330  -30.8280 C   0  0  0  0  0  0  0  0  0  0  0  0
  1  2  2  0
  1  3  1  0
  1  6  1  0
  2  4  1  0
  3  7  1  0
  4  5  1  0
  5  6  2  0
  7 12  1  0
  7  8  2  0
  8  9  1  0
  9 10  2  0
 10 11  1  0
 11 12  2  0
M  END
>  <name>  (1) 
Car Nac Nd0 O_a Car Nac Car Nac Car Car Car Car

>  <indices>  (1) 
[0, 1, 2]

>  <tasks>  (1) 
probe_placing close_aromatic_ring close_aromatic_ring close_aromatic_ring ring_built build_to_Nd0 close_aromatic_ring close_aromatic_ring close_aromatic_ring close_aromatic_ring

>  <prot_clashes>  (1) 
0

>  <NBS phar>  (1) 
0.1

>  <NBS_non-phar>  (1) 
0.7133230368296305

>  <NBS>  (1) 
0.8133230368296305

>  <source_stage>  (1) 
scored

>  <source_iter>  (1) 
9

>  <source_parent_mol>  (1) 
1

>  <source_scenario>  (1) 
1 3 1 0 3 1 2 0 1

>  <source_rank_in_scored_call>  (1) 
0

>  <source_current_task>  (1) 
close_aromatic_ring

>  <scenario>  (1) 
1 3 1 0 3 1 2 0

>  <protected_ring_attachments>  (1) 
3,1,0,2|1,0,2;4,5,0,2|5,0,2

>  <current_task>  (1) 
no_task

>  <rotatable_bond_torsions>  (1) 
1,0,2,6;0,2,6,7;2,6,7,8;7,8,9,10

$$$$

     RDKit          3D

 12 13  0  0  0  0  0  0  0  0999 V2000
  -28.2200   -7.1320  -31.5660 C   0  0  0  0  0  0  0  0  0  0  0  0
  -27.8500   -6.2570  -32.5050 N   0  0  0  0  0  0  0  0  0  0  0  0
  -28.1170   -8.5230  -31.7750 N   0  0  0  0  0  0  0  0  0  0  0  0
  -27.9710   -5.0410  -32.1010 O   0  0  0  0  0  0  0  0  0  0  0  0
  -28.4320   -5.0750  -30.8580 C   0  0  0  0  0  0  0  0  0  0  0  0
  -28.5940   -6.3830  -30.5090 N   0  0  0  0  0  0  0  0  0  0  0  0
  -28.7360   -9.4030  -30.9240 C   0  0  0  0  0  0  0  0  0  0  0  0
  -28.5750  -10.7480  -31.2040 C   0  0  0  0  0  0  0  0  0  0  0  0
  -28.9360  -11.6470  -30.2910 N   0  0  0  0  0  0  0  0  0  0  0  0
  -29.4570  -11.3380  -29.0900 C   0  0  0  0  0  0  0  0  0  0  0  0
  -29.6360   -9.9930  -28.7680 C   0  0  0  0  0  0  0  0  0  0  0  0
  -29.2750   -9.0340  -29.6870 C   0  0  0  0  0  0  0  0  0  0  0  0
  1  2  2  0
  1  3  1  0
  1  6  1  0
  2  4  1  0
  3  7  1  0
  4  5  1  0
  5  6  2  0
  7  8  2  0
  7 12  1  0
  8  9  1  0
  9 10  2  0
 10 11  1  0
 11 12  2  0
M  END
>  <name>  (2) 
Car Nac Nd0 O_a Car Nac Car Car Nac Car Car Car

>  <indices>  (2) 
[0, 1, 2]

>  <tasks>  (2) 
probe_placing close_aromatic_ring close_aromatic_ring close_aromatic_ring ring_built build_to_Nd0 close_aromatic_ring close_aromatic_ring close_aromatic_ring close_aromatic_ring

>  <prot_clashes>  (2) 
1

>  <NBS phar>  (2) 
0.2

>  <NBS_non-phar>  (2) 
0.5387418667475382

>  <NBS>  (2) 
0.7387418667475383

>  <source_stage>  (2) 
scored

>  <source_iter>  (2) 
9

>  <source_parent_mol>  (2) 
0

>  <source_scenario>  (2) 
1 3 1 0 9 2 5 1 0

>  <source_rank_in_scored_call>  (2) 
0

>  <source_current_task>  (2) 
close_aromatic_ring

>  <scenario>  (2) 
1 3 1 0 9 2 5 1

>  <protected_ring_attachments>  (2) 
3,1,0,2|1,0,2;4,5,0,2|5,0,2

>  <current_task>  (2) 
no_task

>  <rotatable_bond_torsions>  (2) 
1,0,2,6;0,2,6,7;6,7,8,9

$$$$

     RDKit          3D

 12 13  0  0  0  0  0  0  0  0999 V2000
  -28.2160   -7.1130  -31.5730 C   0  0  0  0  0  0  0  0  0  0  0  0
  -27.6910   -6.3160  -32.5140 N   0  0  0  0  0  0  0  0  0  0  0  0
  -28.2580   -8.5120  -31.7390 N   0  0  0  0  0  0  0  0  0  0  0  0
  -27.6990   -5.0800  -32.1530 O   0  0  0  0  0  0  0  0  0  0  0  0
  -28.2390   -5.0180  -30.9410 C   0  0  0  0  0  0  0  0  0  0  0  0
  -28.5670   -6.2880  -30.5660 N   0  0  0  0  0  0  0  0  0  0  0  0
  -28.8100   -9.2760  -30.9180 C   0  0  0  0  0  0  0  0  0  0  0  0
  -29.3230   -8.9410  -29.7190 N   0  0  0  0  0  0  0  0  0  0  0  0
  -29.9410   -9.8290  -28.9190 C   0  0  0  0  0  0  0  0  0  0  0  0
  -30.0470  -11.1330  -29.3640 C   0  0  0  0  0  0  0  0  0  0  0  0
  -29.5340  -11.5220  -30.5910 C   0  0  0  0  0  0  0  0  0  0  0  0
  -28.9080  -10.5760  -31.3760 C   0  0  0  0  0  0  0  0  0  0  0  0
  1  2  2  0
  1  3  1  0
  1  6  1  0
  2  4  1  0
  3  7  1  0
  4  5  1  0
  5  6  2  0
  7 12  1  0
  7  8  2  0
  8  9  1  0
  9 10  2  0
 10 11  1  0
 11 12  2  0
M  END
>  <name>  (3) 
Car Nac Nd0 O_a Car Nac Car Nac Car Car Car Car

>  <indices>  (3) 
[0, 1, 2]

>  <tasks>  (3) 
probe_placing close_aromatic_ring close_aromatic_ring close_aromatic_ring ring_built build_to_Nd0 close_aromatic_ring close_aromatic_ring close_aromatic_ring close_aromatic_ring

>  <prot_clashes>  (3) 
0

>  <NBS phar>  (3) 
0.12

>  <NBS_non-phar>  (3) 
0.5857181946436564

>  <NBS>  (3) 
0.7057181946436564

>  <source_stage>  (3) 
scored

>  <source_iter>  (3) 
9

>  <source_parent_mol>  (3) 
0

>  <source_scenario>  (3) 
1 3 1 0 9 5 1 0 0

>  <source_rank_in_scored_call>  (3) 
0

>  <source_current_task>  (3) 
close_aromatic_ring

>  <scenario>  (3) 
1 3 1 0 9 5 1 0

>  <protected_ring_attachments>  (3) 
3,1,0,2|1,0,2;4,5,0,2|5,0,2

>  <current_task>  (3) 
no_task

>  <rotatable_bond_torsions>  (3) 
1,0,2,6;0,2,6,7;2,6,7,8;7,8,9,10

$$$$

     RDKit          3D

 13 14  0  0  0  0  0  0  0  0999 V2000
  -28.0030   -7.2020  -31.2680 C   0  0  0  0  0  0  0  0  0  0  0  0
  -27.5090   -6.7540  -32.4260 N   0  0  0  0  0  0  0  0  0  0  0  0
  -27.7740   -8.5260  -30.8370 N   0  0  0  0  0  0  0  0  0  0  0  0
  -27.7840   -5.5090  -32.6130 O   0  0  0  0  0  0  0  0  0  0  0  0
  -28.4810   -5.0890  -31.5630 C   0  0  0  0  0  0  0  0  0  0  0  0
  -28.6250   -6.1440  -30.7110 N   0  0  0  0  0  0  0  0  0  0  0  0
  -28.3320   -9.0160  -29.7570 C   0  0  0  0  0  0  0  0  0  0  0  0
  -29.5710   -9.5230  -29.6440 N   0  0  0  0  0  0  0  0  0  0  0  0
  -30.0490  -10.0140  -28.4940 C   0  0  0  0  0  0  0  0  0  0  0  0
  -29.2360  -10.0020  -27.3680 C   0  0  0  0  0  0  0  0  0  0  0  0
  -27.9460   -9.4900  -27.4260 C   0  0  0  0  0  0  0  0  0  0  0  0
  -27.4950   -8.9940  -28.6380 C   0  0  0  0  0  0  0  0  0  0  0  0
  -26.2240   -8.4790  -28.7390 O   0  0  0  0  0  0  0  0  0  0  0  0
  1  2  2  0
  1  3  1  0
  1  6  1  0
  2  4  1  0
  3  7  1  0
  4  5  1  0
  5  6  2  0
  7  8  2  0
  7 12  1  0
  8  9  1  0
  9 10  2  0
 10 11  1  0
 11 12  2  0
 12 13  1  0
M  CHG  1  13  -1
M  END
>  <name>  (4) 
Car Nac Nd0 O_a Car Nac Car Nac Car Car Car Car .=O

>  <indices>  (4) 
[0, 1, 2]

>  <tasks>  (4) 
probe_placing close_aromatic_ring close_aromatic_ring close_aromatic_ring ring_built build_to_Nd0 close_aromatic_ring close_aromatic_ring close_aromatic_ring close_aromatic_ring close_aromatic_ring

>  <prot_clashes>  (4) 
0

>  <NBS phar>  (4) 
0.22000000000000003

>  <NBS_non-phar>  (4) 
0.539877304664025

>  <NBS>  (4) 
0.759877304664025

>  <source_stage>  (4) 
scored

>  <source_iter>  (4) 
10

>  <source_parent_mol>  (4) 
0

>  <source_scenario>  (4) 
1 3 1 0 9 7 4 0 1 0

>  <source_rank_in_scored_call>  (4) 
0

>  <source_current_task>  (4) 
build_orthosubstituent_to_rotated_aniline_Nd0

>  <scenario>  (4) 
1 3 1 0 9 7 4 0 1

>  <protected_ring_attachments>  (4) 
3,1,0,2|1,0,2;4,5,0,2|5,0,2;8,7,6,2|7,6,2;10,11,6,2|11,6,2

>  <current_task>  (4) 
no_task

>  <rotatable_bond_torsions>  (4) 
1,0,2,6;0,2,6,7

>  <rotated_aniline_Nd0_dihedral>  (4) 
82.16

>  <rotated_aniline_Nd0_tolerance>  (4) 
60.0

>  <rotated_aniline_Nd0_context>  (4) 
diarylamine

>  <rotated_aniline_Nd0_substituent_idx>  (4) 
0

>  <rotated_aniline_Nd0_ring>  (4) 
7 8 9 10 11 6

>  <flag ortho>  (4) 


$$$$

     RDKit          3D

 17 19  0  0  0  0  0  0  0  0999 V2000
  -28.7330   -8.3070  -31.3060 C   0  0  0  0  0  0  0  0  0  0  0  0
  -28.5600   -7.5390  -32.3820 N   0  0  0  0  0  0  0  0  0  0  0  0
  -29.7110   -9.4240  -31.2320 N   0  0  0  0  0  0  0  0  0  0  0  0
  -27.6830   -6.5420  -32.1530 C   0  0  0  0  0  0  0  0  0  0  0  0
  -27.2980   -6.7100  -30.8690 N   0  0  0  0  0  0  0  0  0  0  0  0
  -27.9200   -7.7590  -30.3540 N   0  0  0  0  0  0  0  0  0  0  0  0
  -27.7690   -7.9740  -28.9260 C   0  0  0  0  0  0  0  0  0  0  0  0
  -26.6680   -8.6470  -28.4390 C   0  0  0  0  0  0  0  0  0  0  0  0
  -26.6000   -9.1860  -27.1800 C   0  0  0  0  0  0  0  0  0  0  0  0
  -27.6950   -9.0490  -26.3480 C   0  0  0  0  0  0  0  0  0  0  0  0
  -28.8130   -8.3810  -26.8030 C   0  0  0  0  0  0  0  0  0  0  0  0
  -28.8570   -7.8420  -28.0900 C   0  0  0  0  0  0  0  0  0  0  0  0
  -29.2240  -10.7970  -31.0290 C   0  0  1  0  0  0  0  0  0  0  0  0
  -28.1470  -10.9870  -32.1420 C   0  0  0  0  0  0  0  0  0  0  0  0
  -27.3880  -12.0130  -31.6890 O   0  0  0  0  0  0  0  0  0  0  0  0
  -27.6890  -12.4410  -30.4770 C   0  0  0  0  0  0  0  0  0  0  0  0
  -28.5150  -11.4070  -29.8110 C   0  0  0  0  0  0  0  0  0  0  0  0
  1  2  2  0
  1  3  1  0
  1  6  1  0
  2  4  1  0
 13  3  1  1
  4  5  2  0
  5  6  1  0
  6  7  1  0
  7  8  2  0
  7 12  1  0
  8  9  1  0
  9 10  2  0
 10 11  1  0
 11 12  2  0
 13 14  1  0
 13 17  1  0
 14 15  1  0
 15 16  1  0
 16 17  1  0
M  END
>  <name>  (5) 
Car Nac Nd0 Car Nac Nac Car Car Car Car Car Car C3r C3r O_a C3r C3r

>  <indices>  (5) 
[0, 1, 2]

>  <tasks>  (5) 
probe_placing close_aromatic_ring close_aromatic_ring close_aromatic_ring ring_built build_to_Nac close_aromatic_ring close_aromatic_ring close_aromatic_ring close_aromatic_ring close_aromatic_ring build_to_Nd0 close_aliphatic_ring close_aliphatic_ring close_aliphatic_ring

>  <prot_clashes>  (5) 
8

>  <NBS phar>  (5) 
0.13999999999999999

>  <NBS_non-phar>  (5) 
0.3749247438767377

>  <NBS>  (5) 
0.5149247438767377

>  <source_stage>  (5) 
scored

>  <source_iter>  (5) 
14

>  <source_parent_mol>  (5) 
0

>  <source_scenario>  (5) 
1 2 3 0 3 0 4 1 2 0 3 1 1 0

>  <source_rank_in_scored_call>  (5) 
1

>  <source_current_task>  (5) 
close_aliphatic_ring

>  <scenario>  (5) 
1 2 3 0 3 0 4 1 2 0 3 1 1

>  <protected_ring_attachments>  (5) 
1,0,5,6|0,5,6;3,1,0,2|1,0,2;3,4,5,6|4,5,6;4,5,0,2|5,0,2

>  <current_task>  (5) 
no_task

>  <rotatable_bond_torsions>  (5) 
1,0,2,12;0,2,12,13;0,5,6,7;2,12,13,14;12,13,14,15

$$$$

     RDKit          3D

 17 19  0  0  0  0  0  0  0  0999 V2000
  -28.7760   -8.7800  -31.1390 C   0  0  0  0  0  0  0  0  0  0  0  0
  -28.4410   -7.9720  -32.1440 N   0  0  0  0  0  0  0  0  0  0  0  0
  -29.7000   -9.9360  -31.2780 N   0  0  0  0  0  0  0  0  0  0  0  0
  -27.6700   -6.9510  -31.7310 C   0  0  0  0  0  0  0  0  0  0  0  0
  -27.5230   -7.1460  -30.4030 N   0  0  0  0  0  0  0  0  0  0  0  0
  -28.1790   -8.2380  -30.0410 N   0  0  0  0  0  0  0  0  0  0  0  0
  -28.2930   -8.6810  -28.7090 C   0  0  0  0  0  0  0  0  0  0  0  0
  -29.1710   -9.6590  -28.2370 C   0  0  0  0  0  0  0  0  0  0  0  0
  -29.1170  -10.0680  -26.9000 C   0  0  0  0  0  0  0  0  0  0  0  0
  -27.3810   -8.1350  -27.8250 C   0  0  0  0  0  0  0  0  0  0  0  0
  -28.2070   -9.5210  -26.0190 C   0  0  0  0  0  0  0  0  0  0  0  0
  -27.3450   -8.5540  -26.4970 C   0  0  0  0  0  0  0  0  0  0  0  0
  -29.2060  -11.4180  -31.1990 C   0  0  2  0  0  0  0  0  0  0  0  0
  -27.7570  -11.3580  -30.8060 C   0  0  0  0  0  0  0  0  0  0  0  0
  -27.2670  -12.6150  -30.9980 O   0  0  0  0  0  0  0  0  0  0  0  0
  -28.1500  -13.4080  -31.7340 C   0  0  0  0  0  0  0  0  0  0  0  0
  -29.1910  -12.4380  -32.3200 C   0  0  0  0  0  0  0  0  0  0  0  0
  1  2  2  0
  1  3  1  0
  1  6  1  0
  2  4  1  0
 13  3  1  6
  4  5  2  0
  5  6  1  0
  6  7  1  0
  7  8  2  0
  7 10  1  0
  8  9  1  0
  9 11  2  0
 10 12  2  0
 11 12  1  0
 13 17  1  0
 13 14  1  0
 14 15  1  0
 15 16  1  0
 16 17  1  0
M  END
>  <name>  (6) 
Car Nac Nd0 Car Nac Nac Car Car Car Car Car Car C3r C3r O_a C3r C3r

>  <indices>  (6) 
[0, 1, 2]

>  <tasks>  (6) 
probe_placing close_aromatic_ring close_aromatic_ring close_aromatic_ring ring_built build_to_Nac close_aromatic_ring close_aromatic_ring close_aromatic_ring close_aromatic_ring close_aromatic_ring build_to_Nd0 close_aliphatic_ring close_aliphatic_ring close_aliphatic_ring

>  <prot_clashes>  (6) 
11

>  <NBS phar>  (6) 
0.02

>  <NBS_non-phar>  (6) 
0.39859850266400504

>  <NBS>  (6) 
0.41859850266400506

>  <source_stage>  (6) 
scored

>  <source_iter>  (6) 
14

>  <source_parent_mol>  (6) 
0

>  <source_scenario>  (6) 
1 2 3 0 3 2 4 1 1 1 2 1 0 0

>  <source_rank_in_scored_call>  (6) 
0

>  <source_current_task>  (6) 
close_aliphatic_ring

>  <scenario>  (6) 
1 2 3 0 3 2 4 1 1 1 2 1 0

>  <protected_ring_attachments>  (6) 
1,0,5,6|0,5,6;3,1,0,2|1,0,2;3,4,5,6|4,5,6;4,5,0,2|5,0,2

>  <current_task>  (6) 
no_task

>  <rotatable_bond_torsions>  (6) 
1,0,2,12;0,2,12,13;0,5,6,7;2,12,13,14;12,13,14,15

$$$$

     RDKit          3D

 17 19  0  0  0  0  0  0  0  0999 V2000
  -28.5670   -9.0210  -31.1400 C   0  0  0  0  0  0  0  0  0  0  0  0
  -28.2150   -8.1130  -32.0500 N   0  0  0  0  0  0  0  0  0  0  0  0
  -29.2120  -10.3160  -31.4710 N   0  0  0  0  0  0  0  0  0  0  0  0
  -27.7390   -6.9890  -31.4790 C   0  0  0  0  0  0  0  0  0  0  0  0
  -27.8000   -7.2260  -30.1510 N   0  0  0  0  0  0  0  0  0  0  0  0
  -28.2920   -8.4370  -29.9390 N   0  0  0  0  0  0  0  0  0  0  0  0
  -28.5590   -8.9650  -28.6610 C   0  0  0  0  0  0  0  0  0  0  0  0
  -29.3050  -10.1110  -28.3800 C   0  0  0  0  0  0  0  0  0  0  0  0
  -29.4180  -10.5730  -27.0650 C   0  0  0  0  0  0  0  0  0  0  0  0
  -27.9430   -8.3080  -27.6120 C   0  0  0  0  0  0  0  0  0  0  0  0
  -28.8030   -9.9160  -26.0190 C   0  0  0  0  0  0  0  0  0  0  0  0
  -28.0680   -8.7860  -26.3080 C   0  0  0  0  0  0  0  0  0  0  0  0
  -28.1210  -11.5280  -31.7640 C   0  0  2  0  0  0  0  0  0  0  0  0
  -29.1720  -12.3650  -32.4720 C   0  0  0  0  0  0  0  0  0  0  0  0
  -28.8430  -13.6830  -32.3290 O   0  0  0  0  0  0  0  0  0  0  0  0
  -27.8510  -13.8200  -31.4090 C   0  0  0  0  0  0  0  0  0  0  0  0
  -27.6830  -12.5000  -30.7060 C   0  0  0  0  0  0  0  0  0  0  0  0
  1  2  2  0
  1  3  1  0
  1  6  1  0
  2  4  1  0
 13  3  1  1
  4  5  2  0
  5  6  1  0
  6  7  1  0
  7  8  2  0
  7 10  1  0
  8  9  1  0
  9 11  2  0
 10 12  2  0
 11 12  1  0
 13 14  1  0
 13 17  1  0
 14 15  1  0
 15 16  1  0
 16 17  1  0
M  END
>  <name>  (7) 
Car Nac Nd0 Car Nac Nac Car Car Car Car Car Car C3r C3r O_a C3r C3r

>  <indices>  (7) 
[0, 1, 2]

>  <tasks>  (7) 
probe_placing close_aromatic_ring close_aromatic_ring close_aromatic_ring ring_built build_to_Nac close_aromatic_ring close_aromatic_ring close_aromatic_ring close_aromatic_ring close_aromatic_ring build_to_Nd0 close_aliphatic_ring close_aliphatic_ring close_aliphatic_ring

>  <prot_clashes>  (7) 
11

>  <NBS phar>  (7) 
0.13999999999999999

>  <NBS_non-phar>  (7) 
0.4038088181439568

>  <NBS>  (7) 
0.5438088181439568

>  <source_stage>  (7) 
scored

>  <source_iter>  (7) 
14

>  <source_parent_mol>  (7) 
2

>  <source_scenario>  (7) 
1 2 3 0 3 2 4 1 1 1 2 2 0 2

>  <source_rank_in_scored_call>  (7) 
1

>  <source_current_task>  (7) 
close_aliphatic_ring

>  <scenario>  (7) 
1 2 3 0 3 2 4 1 1 1 2 2 0

>  <protected_ring_attachments>  (7) 
1,0,5,6|0,5,6;3,1,0,2|1,0,2;3,4,5,6|4,5,6;4,5,0,2|5,0,2

>  <current_task>  (7) 
no_task

>  <rotatable_bond_torsions>  (7) 
1,0,2,12;0,2,12,13;0,5,6,7;2,12,13,14;12,13,14,15

$$$$

     RDKit          3D

  9 10  0  0  0  0  0  0  0  0999 V2000
  -28.0320   -7.5380  -31.4270 C   0  0  0  0  0  0  0  0  0  0  0  0
  -27.6780   -6.6130  -32.3370 N   0  0  0  0  0  0  0  0  0  0  0  0
  -27.9500   -8.8990  -31.4070 N   0  0  0  0  0  0  0  0  0  0  0  0
  -27.8550   -5.2920  -32.1400 C   0  0  0  0  0  0  0  0  0  0  0  0
  -28.4270   -4.7940  -30.9640 C   0  0  0  0  0  0  0  0  0  0  0  0
  -28.7890   -5.7510  -30.0340 C   0  0  0  0  0  0  0  0  0  0  0  0
  -28.6010   -7.0900  -30.2500 C   0  0  0  0  0  0  0  0  0  0  0  0
  -28.4570   -9.3330  -30.2360 C   0  0  0  0  0  0  0  0  0  0  0  0
  -28.8670   -8.2400  -29.5000 C   0  0  0  0  0  0  0  0  0  0  0  0
  1  2  2  0
  1  3  1  0
  1  7  1  0
  2  4  1  0
  3  8  1  0
  4  5  2  0
  5  6  1  0
  6  7  2  0
  7  9  1  0
  8  9  2  0
M  END
>  <name>  (8) 
Car Nac Nd0 Car Car Car Car Car Car

>  <indices>  (8) 
[0, 1, 2]

>  <tasks>  (8) 
probe_placing close_aromatic_ring close_aromatic_ring close_aromatic_ring close_aromatic_ring ring_built build_to_Nd0

>  <prot_clashes>  (8) 
0

>  <NBS phar>  (8) 
0.22000000000000003

>  <NBS_non-phar>  (8) 
0.7362652884589301

>  <NBS>  (8) 
0.9562652884589302

>  <source_stage>  (8) 
scored

>  <source_iter>  (8) 
6

>  <source_parent_mol>  (8) 
3

>  <source_scenario>  (8) 
1 2 5 0 0 3

>  <source_rank_in_scored_call>  (8) 
7

>  <source_current_task>  (8) 
close_aromatic_ring

>  <scenario>  (8) 
1 2 5 0 0

>  <protected_ring_attachments>  (8) 
3,1,0,2|1,0,2;5,6,0,2|6,0,2

>  <current_task>  (8) 
no_task

>  <rotatable_bond_torsions>  (8) 
1,0,2,7

$$$$
