
     RDKit          3D

 13 14  0  0  0  0  0  0  0  0999 V2000
  -27.8680   -7.1160  -31.2260 C   0  0  0  0  0  0  0  0  0  0  0  0
  -27.6890   -6.7970  -32.5200 N   0  0  0  0  0  0  0  0  0  0  0  0
  -27.7340   -8.5100  -30.8410 N   0  0  0  0  0  0  0  0  0  0  0  0
  -27.8150   -5.4950  -32.5720 O   0  0  0  0  0  0  0  0  0  0  0  0
  -28.0600   -4.9980  -31.3810 C   0  0  0  0  0  0  0  0  0  0  0  0
  -28.1020   -6.0080  -30.4910 N   0  0  0  0  0  0  0  0  0  0  0  0
  -27.9460   -8.8870  -29.5380 C   0  0  0  0  0  0  0  0  0  0  0  0
  -29.0600   -9.6720  -29.2230 C   0  0  0  0  0  0  0  0  0  0  0  0
  -29.2890  -10.0430  -27.9160 C   0  0  0  0  0  0  0  0  0  0  0  0
  -28.4130   -9.6340  -26.9280 C   0  0  0  0  0  0  0  0  0  0  0  0
  -27.3090   -8.8590  -27.2260 C   0  0  0  0  0  0  0  0  0  0  0  0
  -27.0790   -8.4860  -28.5390 C   0  0  0  0  0  0  0  0  0  0  0  0
  -29.9240  -10.0720  -30.2150 O   0  0  0  0  0  0  0  0  0  0  0  0
  1  2  2  0
  1  3  1  0
  1  6  1  0
  2  4  1  0
  3  7  1  0
  4  5  1  0
  5  6  2  0
  7  8  2  0
  7 12  1  0
  8 13  1  0
  8  9  1  0
  9 10  2  0
 10 11  1  0
 11 12  2  0
M  CHG  1  13  -1
M  END
>  <name>  (1) 
Car Nac Nd0 O_a Car Nac Car Car Car Car Car Car .=O

>  <indices>  (1) 
[0, 1, 2]

>  <tasks>  (1) 
probe_placing close_aromatic_ring close_aromatic_ring close_aromatic_ring ring_built build_to_Nd0 close_aromatic_ring close_aromatic_ring close_aromatic_ring close_aromatic_ring close_aromatic_ring

>  <prot_clashes>  (1) 
1

>  <NBS phar>  (1) 
0.22000000000000003

>  <NBS_non-phar>  (1) 
0.5597163347097543

>  <NBS>  (1) 
0.7797163347097544

>  <source_stage>  (1) 
scored

>  <source_iter>  (1) 
10

>  <source_parent_mol>  (1) 
0

>  <source_scenario>  (1) 
1 3 1 0 1 0 0 0 0 0

>  <source_rank_in_scored_call>  (1) 
1

>  <source_current_task>  (1) 
build_orthosubstituent_to_rotated_aniline_Nd0

>  <scenario>  (1) 
1 3 1 0 1 0 0 0 0

>  <protected_ring_attachments>  (1) 
3,1,0,2|1,0,2;4,5,0,2|5,0,2;8,7,6,2|7,6,2;10,11,6,2|11,6,2

>  <current_task>  (1) 
no_task

>  <rotatable_bond_torsions>  (1) 
1,0,2,6;0,2,6,7

>  <rotated_aniline_Nd0_dihedral>  (1) 
111.73

>  <rotated_aniline_Nd0_tolerance>  (1) 
60.0

>  <rotated_aniline_Nd0_context>  (1) 
diarylamine

>  <rotated_aniline_Nd0_substituent_idx>  (1) 
0

>  <rotated_aniline_Nd0_ring>  (1) 
7 8 9 10 11 6

>  <flag ortho>  (1) 


$$$$

     RDKit          3D

 13 14  0  0  0  0  0  0  0  0999 V2000
  -28.0630   -7.2060  -31.3510 C   0  0  0  0  0  0  0  0  0  0  0  0
  -27.6890   -6.6940  -32.5370 N   0  0  0  0  0  0  0  0  0  0  0  0
  -28.0010   -8.6470  -31.1790 N   0  0  0  0  0  0  0  0  0  0  0  0
  -27.7940   -5.3960  -32.3970 O   0  0  0  0  0  0  0  0  0  0  0  0
  -28.2100   -5.0850  -31.1910 C   0  0  0  0  0  0  0  0  0  0  0  0
  -28.3940   -6.2200  -30.4900 N   0  0  0  0  0  0  0  0  0  0  0  0
  -28.4090   -9.2170  -29.9980 C   0  0  0  0  0  0  0  0  0  0  0  0
  -29.5650  -10.0040  -29.9800 C   0  0  0  0  0  0  0  0  0  0  0  0
  -29.9900  -10.5680  -28.7970 C   0  0  0  0  0  0  0  0  0  0  0  0
  -29.2680  -10.3490  -27.6390 C   0  0  0  0  0  0  0  0  0  0  0  0
  -28.1250   -9.5730  -27.6440 C   0  0  0  0  0  0  0  0  0  0  0  0
  -27.6980   -9.0060  -28.8320 C   0  0  0  0  0  0  0  0  0  0  0  0
  -26.5610   -8.2320  -28.8530 O   0  0  0  0  0  0  0  0  0  0  0  0
  1  2  2  0
  1  3  1  0
  1  6  1  0
  2  4  1  0
  3  7  1  0
  4  5  1  0
  5  6  2  0
  7  8  2  0
  7 12  1  0
  8  9  1  0
  9 10  2  0
 10 11  1  0
 11 12  2  0
 12 13  1  0
M  CHG  1  13  -1
M  END
>  <name>  (2) 
Car Nac Nd0 O_a Car Nac Car Car Car Car Car Car .=O

>  <indices>  (2) 
[0, 1, 2]

>  <tasks>  (2) 
probe_placing close_aromatic_ring close_aromatic_ring close_aromatic_ring ring_built build_to_Nd0 close_aromatic_ring close_aromatic_ring close_aromatic_ring close_aromatic_ring close_aromatic_ring

>  <prot_clashes>  (2) 
2

>  <NBS phar>  (2) 
0.1

>  <NBS_non-phar>  (2) 
0.5535317200880784

>  <NBS>  (2) 
0.6535317200880784

>  <source_stage>  (2) 
scored

>  <source_iter>  (2) 
10

>  <source_parent_mol>  (2) 
0

>  <source_scenario>  (2) 
1 3 1 0 1 0 0 0 0 0

>  <source_rank_in_scored_call>  (2) 
9

>  <source_current_task>  (2) 
build_orthosubstituent_to_rotated_aniline_Nd0

>  <scenario>  (2) 
1 3 1 0 1 0 0 0 0

>  <protected_ring_attachments>  (2) 
3,1,0,2|1,0,2;4,5,0,2|5,0,2;8,7,6,2|7,6,2;10,11,6,2|11,6,2

>  <current_task>  (2) 
no_task

>  <rotatable_bond_torsions>  (2) 
1,0,2,6;0,2,6,7

>  <rotated_aniline_Nd0_dihedral>  (2) 
111.73

>  <rotated_aniline_Nd0_tolerance>  (2) 
60.0

>  <rotated_aniline_Nd0_context>  (2) 
diarylamine

>  <rotated_aniline_Nd0_substituent_idx>  (2) 
0

>  <rotated_aniline_Nd0_ring>  (2) 
7 8 9 10 11 6

>  <flag ortho>  (2) 


$$$$

     RDKit          3D

 13 14  0  0  0  0  0  0  0  0999 V2000
  -28.0760   -7.6240  -31.0490 C   0  0  0  0  0  0  0  0  0  0  0  0
  -27.4430   -7.2810  -32.1850 N   0  0  0  0  0  0  0  0  0  0  0  0
  -27.7130   -8.8770  -30.4150 N   0  0  0  0  0  0  0  0  0  0  0  0
  -27.9200   -6.1070  -32.5050 O   0  0  0  0  0  0  0  0  0  0  0  0
  -28.8120   -5.7040  -31.6280 C   0  0  0  0  0  0  0  0  0  0  0  0
  -28.9390   -6.6540  -30.6790 N   0  0  0  0  0  0  0  0  0  0  0  0
  -28.4120   -9.3320  -29.3100 C   0  0  0  0  0  0  0  0  0  0  0  0
  -27.7710   -9.3980  -28.0880 C   0  0  0  0  0  0  0  0  0  0  0  0
  -28.4090   -9.9210  -26.9970 C   0  0  0  0  0  0  0  0  0  0  0  0
  -29.7010  -10.4010  -27.0540 C   0  0  0  0  0  0  0  0  0  0  0  0
  -30.3450  -10.3360  -28.2730 C   0  0  0  0  0  0  0  0  0  0  0  0
  -29.7190   -9.8070  -29.4090 C   0  0  0  0  0  0  0  0  0  0  0  0
  -26.4820   -8.9340  -27.9680 O   0  0  0  0  0  0  0  0  0  0  0  0
  1  2  2  0
  1  6  1  0
  1  3  1  0
  2  4  1  0
  3  7  1  0
  4  5  1  0
  5  6  2  0
  7 12  1  0
  7  8  2  0
  8 13  1  0
  8  9  1  0
  9 10  2  0
 10 11  1  0
 11 12  2  0
M  CHG  1  13  -1
M  END
>  <name>  (3) 
Car Nac Nd0 O_a Car Nac Car Car Car Car Car Car .=O

>  <indices>  (3) 
[0, 1, 2]

>  <tasks>  (3) 
probe_placing close_aromatic_ring close_aromatic_ring close_aromatic_ring ring_built build_to_Nd0 close_aromatic_ring close_aromatic_ring close_aromatic_ring close_aromatic_ring close_aromatic_ring

>  <prot_clashes>  (3) 
4

>  <NBS phar>  (3) 
0.2

>  <NBS_non-phar>  (3) 
0.41872369326077974

>  <NBS>  (3) 
0.6187236932607798

>  <source_stage>  (3) 
scored

>  <source_iter>  (3) 
10

>  <source_parent_mol>  (3) 
0

>  <source_scenario>  (3) 
1 3 1 0 1 5 4 0 1 0

>  <source_rank_in_scored_call>  (3) 
0

>  <source_current_task>  (3) 
build_orthosubstituent_to_rotated_aniline_Nd0

>  <scenario>  (3) 
1 3 1 0 1 5 4 0 1

>  <protected_ring_attachments>  (3) 
3,1,0,2|1,0,2;4,5,0,2|5,0,2;8,7,6,2|7,6,2;10,11,6,2|11,6,2

>  <current_task>  (3) 
no_task

>  <rotatable_bond_torsions>  (3) 
1,0,2,6;0,2,6,7

>  <rotated_aniline_Nd0_dihedral>  (3) 
113.28

>  <rotated_aniline_Nd0_tolerance>  (3) 
60.0

>  <rotated_aniline_Nd0_context>  (3) 
diarylamine

>  <rotated_aniline_Nd0_substituent_idx>  (3) 
0

>  <rotated_aniline_Nd0_ring>  (3) 
7 8 9 10 11 6

>  <flag ortho>  (3) 


$$$$

     RDKit          3D

 13 14  0  0  0  0  0  0  0  0999 V2000
  -27.5590   -7.2430  -30.8490 C   0  0  0  0  0  0  0  0  0  0  0  0
  -27.0350   -6.9780  -32.0590 N   0  0  0  0  0  0  0  0  0  0  0  0
  -26.9780   -8.3230  -30.0730 N   0  0  0  0  0  0  0  0  0  0  0  0
  -27.7040   -5.9480  -32.5060 O   0  0  0  0  0  0  0  0  0  0  0  0
  -28.6120   -5.5610  -31.6390 C   0  0  0  0  0  0  0  0  0  0  0  0
  -28.5490   -6.3710  -30.5620 N   0  0  0  0  0  0  0  0  0  0  0  0
  -27.5510   -8.7120  -28.8750 C   0  0  0  0  0  0  0  0  0  0  0  0
  -26.8590   -8.5030  -27.6980 C   0  0  0  0  0  0  0  0  0  0  0  0
  -27.3620   -8.9520  -26.5070 C   0  0  0  0  0  0  0  0  0  0  0  0
  -28.5620   -9.6250  -26.4180 C   0  0  0  0  0  0  0  0  0  0  0  0
  -29.2580   -9.8350  -27.5910 C   0  0  0  0  0  0  0  0  0  0  0  0
  -28.7700   -9.3880  -28.8260 C   0  0  0  0  0  0  0  0  0  0  0  0
  -29.4850   -9.6140  -29.9780 O   0  0  0  0  0  0  0  0  0  0  0  0
  1  2  2  0
  1  6  1  0
  1  3  1  0
  2  4  1  0
  3  7  1  0
  4  5  1  0
  5  6  2  0
  7 12  1  0
  7  8  2  0
  8  9  1  0
  9 10  2  0
 10 11  1  0
 11 12  2  0
 12 13  1  0
M  CHG  1  13  -1
M  END
>  <name>  (4) 
Car Nac Nd0 O_a Car Nac Car Car Car Car Car Car .=O

>  <indices>  (4) 
[0, 1, 2]

>  <tasks>  (4) 
probe_placing close_aromatic_ring close_aromatic_ring close_aromatic_ring ring_built build_to_Nd0 close_aromatic_ring close_aromatic_ring close_aromatic_ring close_aromatic_ring close_aromatic_ring

>  <prot_clashes>  (4) 
5

>  <NBS phar>  (4) 
0.1

>  <NBS_non-phar>  (4) 
0.42568280146672177

>  <NBS>  (4) 
0.5256828014667217

>  <source_stage>  (4) 
scored

>  <source_iter>  (4) 
10

>  <source_parent_mol>  (4) 
0

>  <source_scenario>  (4) 
1 3 1 0 1 5 4 0 1 0

>  <source_rank_in_scored_call>  (4) 
4

>  <source_current_task>  (4) 
build_orthosubstituent_to_rotated_aniline_Nd0

>  <scenario>  (4) 
1 3 1 0 1 5 4 0 1

>  <protected_ring_attachments>  (4) 
3,1,0,2|1,0,2;4,5,0,2|5,0,2;8,7,6,2|7,6,2;10,11,6,2|11,6,2

>  <current_task>  (4) 
no_task

>  <rotatable_bond_torsions>  (4) 
1,0,2,6;0,2,6,7

>  <rotated_aniline_Nd0_dihedral>  (4) 
113.28

>  <rotated_aniline_Nd0_tolerance>  (4) 
60.0

>  <rotated_aniline_Nd0_context>  (4) 
diarylamine

>  <rotated_aniline_Nd0_substituent_idx>  (4) 
0

>  <rotated_aniline_Nd0_ring>  (4) 
7 8 9 10 11 6

>  <flag ortho>  (4) 


$$$$

     RDKit          3D

  9 10  0  0  0  0  0  0  0  0999 V2000
  -28.0870   -7.5510  -31.6810 C   0  0  0  0  0  0  0  0  0  0  0  0
  -27.7040   -6.5490  -32.5170 N   0  0  0  0  0  0  0  0  0  0  0  0
  -28.0660   -8.8870  -31.7620 N   0  0  0  0  0  0  0  0  0  0  0  0
  -27.8550   -5.2640  -32.1460 C   0  0  0  0  0  0  0  0  0  0  0  0
  -28.3870   -4.8740  -30.9390 C   0  0  0  0  0  0  0  0  0  0  0  0
  -28.7840   -5.8720  -30.0730 C   0  0  0  0  0  0  0  0  0  0  0  0
  -28.6260   -7.2010  -30.4600 C   0  0  0  0  0  0  0  0  0  0  0  0
  -28.5770   -9.4020  -30.6280 C   0  0  0  0  0  0  0  0  0  0  0  0
  -28.9380   -8.3660  -29.7910 C   0  0  0  0  0  0  0  0  0  0  0  0
  1  2  2  0
  1  3  1  0
  1  7  1  0
  2  4  1  0
  3  8  1  0
  4  5  2  0
  5  6  1  0
  6  7  2  0
  7  9  1  0
  8  9  2  0
M  END
>  <name>  (5) 
Car Nac Nd0 Car Car Car Car Car Car

>  <indices>  (5) 
[0, 1, 2]

>  <tasks>  (5) 
probe_placing close_aromatic_ring close_aromatic_ring close_aromatic_ring close_aromatic_ring ring_built build_to_Nd0

>  <prot_clashes>  (5) 
0

>  <NBS phar>  (5) 
0.2

>  <NBS_non-phar>  (5) 
0.6305828624301486

>  <NBS>  (5) 
0.8305828624301486

>  <source_stage>  (5) 
scored

>  <source_iter>  (5) 
6

>  <source_parent_mol>  (5) 
4

>  <source_scenario>  (5) 
1 2 5 0 0 4

>  <source_rank_in_scored_call>  (5) 
7

>  <source_current_task>  (5) 
close_aromatic_ring

>  <scenario>  (5) 
1 2 5 0 0

>  <protected_ring_attachments>  (5) 
3,1,0,2|1,0,2;5,6,0,2|6,0,2

>  <current_task>  (5) 
no_task

>  <rotatable_bond_torsions>  (5) 
1,0,2,7

$$$$

     RDKit          3D

 16 18  0  0  0  0  0  0  0  0999 V2000
  -28.4080   -8.0570  -31.4110 C   0  0  0  0  0  0  0  0  0  0  0  0
  -28.0270   -6.9010  -32.0320 N   0  0  0  0  0  0  0  0  0  0  0  0
  -28.4810   -9.3370  -31.8170 N   0  0  0  0  0  0  0  0  0  0  0  0
  -28.0520   -5.7190  -31.3700 C   0  0  0  0  0  0  0  0  0  0  0  0
  -28.4570   -5.6480  -30.0670 N   0  0  0  0  0  0  0  0  0  0  0  0
  -28.8430   -6.7650  -29.4080 C   0  0  0  0  0  0  0  0  0  0  0  0
  -28.8120   -7.9600  -30.0960 C   0  0  0  0  0  0  0  0  0  0  0  0
  -27.6230   -4.6360  -32.1460 O   0  0  0  0  0  0  0  0  0  0  0  0
  -28.3990   -4.2700  -29.6370 C   0  0  0  0  0  0  0  0  0  0  0  0
  -28.8370   -3.2530  -30.4740 C   0  0  0  0  0  0  0  0  0  0  0  0
  -27.8830   -3.9170  -28.3880 C   0  0  0  0  0  0  0  0  0  0  0  0
  -27.8020   -2.6050  -27.9780 C   0  0  0  0  0  0  0  0  0  0  0  0
  -28.2380   -1.5900  -28.8130 C   0  0  0  0  0  0  0  0  0  0  0  0
  -28.7500   -1.9320  -30.0490 C   0  0  0  0  0  0  0  0  0  0  0  0
  -28.9280  -10.0490  -30.7680 C   0  0  0  0  0  0  0  0  0  0  0  0
  -29.1470   -9.2330  -29.6790 C   0  0  0  0  0  0  0  0  0  0  0  0
  1  2  2  0
  1  3  1  0
  1  7  1  0
  2  4  1  0
  3 15  1  0
  4  8  2  0
  4  5  1  0
  5  9  1  0
  5  6  1  0
  6  7  2  0
  7 16  1  0
 15 16  2  0
  9 10  2  0
  9 11  1  0
 10 14  1  0
 11 12  2  0
 12 13  1  0
 13 14  2  0
M  END
>  <name>  (6) 
Car Nac Nd0 Car Nac Car Car .=O Car Car Car Car Car Car Car Car

>  <indices>  (6) 
[0, 1, 2]

>  <tasks>  (6) 
probe_placing close_aromatic_ring close_aromatic_ring close_aromatic_ring close_aromatic_ring ring_built fix_Car build_to_Nac close_aromatic_ring close_aromatic_ring close_aromatic_ring close_aromatic_ring close_aromatic_ring build_to_Nd0

>  <prot_clashes>  (6) 
4

>  <NBS phar>  (6) 
0.19999999999999998

>  <NBS_non-phar>  (6) 
0.6204050779342651

>  <NBS>  (6) 
0.8204050779342651

>  <source_stage>  (6) 
scored

>  <source_iter>  (6) 
13

>  <source_parent_mol>  (6) 
3

>  <source_scenario>  (6) 
1 2 7 0 0 0 1 3 0 0 2 0 3

>  <source_rank_in_scored_call>  (6) 
2

>  <source_current_task>  (6) 
close_aromatic_ring

>  <scenario>  (6) 
1 2 7 0 0 0 1 3 0 0 2 0

>  <protected_ring_attachments>  (6) 
1,3,4,8|3,4,8;3,1,0,2|1,0,2;5,6,0,2|6,0,2;6,5,4,8|5,4,8

>  <current_task>  (6) 
no_task

>  <rotatable_bond_torsions>  (6) 
1,0,2,14;3,4,8,9

$$$$

     RDKit          3D

 16 18  0  0  0  0  0  0  0  0999 V2000
  -28.2710   -8.2170  -31.1180 C   0  0  0  0  0  0  0  0  0  0  0  0
  -28.4160   -7.2790  -32.0870 N   0  0  0  0  0  0  0  0  0  0  0  0
  -28.2360   -9.5800  -31.1340 N   0  0  0  0  0  0  0  0  0  0  0  0
  -28.4080   -5.9790  -31.7510 C   0  0  0  0  0  0  0  0  0  0  0  0
  -28.2600   -5.5440  -30.4810 N   0  0  0  0  0  0  0  0  0  0  0  0
  -28.1120   -6.4300  -29.4820 C   0  0  0  0  0  0  0  0  0  0  0  0
  -28.1180   -7.7750  -29.8080 C   0  0  0  0  0  0  0  0  0  0  0  0
  -28.5580   -5.1250  -32.8820 O   0  0  0  0  0  0  0  0  0  0  0  0
  -28.2850   -4.0800  -30.4290 C   0  0  0  0  0  0  0  0  0  0  0  0
  -27.3050   -3.3040  -31.0130 C   0  0  0  0  0  0  0  0  0  0  0  0
  -27.3050   -1.9440  -30.7790 C   0  0  0  0  0  0  0  0  0  0  0  0
  -28.2690   -1.3680  -29.9760 C   0  0  0  0  0  0  0  0  0  0  0  0
  -29.2530   -3.4900  -29.6210 C   0  0  0  0  0  0  0  0  0  0  0  0
  -29.2740   -2.1320  -29.3720 C   0  0  0  0  0  0  0  0  0  0  0  0
  -28.0670   -9.9740  -29.8570 C   0  0  0  0  0  0  0  0  0  0  0  0
  -27.9900   -8.8960  -29.0230 C   0  0  0  0  0  0  0  0  0  0  0  0
  1  2  2  0
  1  3  1  0
  1  7  1  0
  2  4  1  0
  3 15  1  0
  4  8  2  0
  4  5  1  0
  5  9  1  0
  5  6  1  0
  6  7  2  0
  7 16  1  0
 15 16  2  0
  9 10  2  0
  9 13  1  0
 10 11  1  0
 11 12  2  0
 12 14  1  0
 13 14  2  0
M  END
>  <name>  (7) 
Car Nac Nd0 Car Nac Car Car .=O Car Car Car Car Car Car Car Car

>  <indices>  (7) 
[0, 1, 2]

>  <tasks>  (7) 
probe_placing close_aromatic_ring close_aromatic_ring close_aromatic_ring close_aromatic_ring ring_built fix_Car build_to_Nac close_aromatic_ring close_aromatic_ring close_aromatic_ring close_aromatic_ring close_aromatic_ring build_to_Nd0

>  <prot_clashes>  (7) 
5

>  <NBS phar>  (7) 
0.18

>  <NBS_non-phar>  (7) 
0.6617482900619507

>  <NBS>  (7) 
0.8417482900619506

>  <source_stage>  (7) 
scored

>  <source_iter>  (7) 
13

>  <source_parent_mol>  (7) 
9

>  <source_scenario>  (7) 
1 2 7 0 0 0 1 5 1 0 1 0 9

>  <source_rank_in_scored_call>  (7) 
0

>  <source_current_task>  (7) 
close_aromatic_ring

>  <scenario>  (7) 
1 2 7 0 0 0 1 5 1 0 1 0

>  <protected_ring_attachments>  (7) 
1,3,4,8|3,4,8;3,1,0,2|1,0,2;5,6,0,2|6,0,2;6,5,4,8|5,4,8

>  <current_task>  (7) 
no_task

>  <rotatable_bond_torsions>  (7) 
1,0,2,14;3,4,8,9

$$$$
