
     RDKit          3D

  9 10  0  0  0  0  0  0  0  0999 V2000
  -27.8092   -7.5857  -31.1769 C   0  0  0  0  0  0  0  0  0  0  0  0
  -27.6076   -6.6784  -32.1477 N   0  0  0  0  0  0  0  0  0  0  0  0
  -27.6875   -8.9225  -31.2003 N   0  0  0  0  0  0  0  0  0  0  0  0
  -27.7896   -5.3463  -31.9140 C   0  0  0  0  0  0  0  0  0  0  0  0
  -28.1901   -4.9480  -30.6423 C   0  0  0  0  0  0  0  0  0  0  0  0
  -28.3984   -5.8771  -29.6418 C   0  0  0  0  0  0  0  0  0  0  0  0
  -28.2113   -7.2212  -29.8899 C   0  0  0  0  0  0  0  0  0  0  0  0
  -28.0021   -9.4068  -29.9633 C   0  0  0  0  0  0  0  0  0  0  0  0
  -28.3314   -8.3532  -29.1351 C   0  0  0  0  0  0  0  0  0  0  0  0
  1  2  2  0
  1  3  1  0
  2  4  1  0
  4  5  2  0
  5  6  1  0
  6  7  2  0
  1  7  1  0
  3  8  1  0
  8  9  2  0
  7  9  1  0
M  END
>  <name>  (1) 
Car Nac Nd0 Car Car Car Car Car Car

>  <indices>  (1) 
[0, 1, 2]

>  <tasks>  (1) 
probe_placing close_aromatic_ring close_aromatic_ring close_aromatic_ring close_aromatic_ring ring_built build_to_Nd0 close_aromatic_ring

>  <prot_clashes>  (1) 
0

>  <NBS phar>  (1) 
0.24000000000000005

>  <NBS_non-phar>  (1) 
0.8083694246080186

>  <NBS>  (1) 
1.0483694246080186

>  <source_stage>  (1) 
scored

>  <source_iter>  (1) 
6

>  <source_parent_mol>  (1) 
0

>  <source_scenario>  (1) 
1 2 2 1 0 0

>  <source_rank_in_scored_call>  (1) 
5

>  <source_current_task>  (1) 
close_aromatic_ring

>  <scenario>  (1) 
1 2 2 1 0 0

>  <current_task>  (1) 
no_task

>  <ref_match>  (1) 
1

>  <ref_match_iter>  (1) 
6

>  <ref_match_stage>  (1) 
selected_3_final_beam

>  <ref_match_index_in_stage_call>  (1) 
0

>  <scenario_at_ref_check>  (1) 
1 2 2 1 0 0

>  <current_task_at_ref_check>  (1) 
close_aromatic_ring

>  <scenario_original>  (1) 
1 2 2 1 0 0

>  <current_task_original>  (1) 
no_task

>  <num_atom_types>  (1) 
9

$$$$

     RDKit          3D

  9 10  0  0  0  0  0  0  0  0999 V2000
  -27.6210   -7.4770  -31.5470 C   0  0  0  0  0  0  0  0  0  0  0  0
  -27.3030   -6.6100  -32.5250 N   0  0  0  0  0  0  0  0  0  0  0  0
  -27.3140   -8.7750  -31.4050 N   0  0  0  0  0  0  0  0  0  0  0  0
  -27.7230   -5.3120  -32.4790 C   0  0  0  0  0  0  0  0  0  0  0  0
  -28.4920   -4.9060  -31.3920 C   0  0  0  0  0  0  0  0  0  0  0  0
  -28.8210   -5.7920  -30.3870 C   0  0  0  0  0  0  0  0  0  0  0  0
  -28.3910   -7.1020  -30.4440 C   0  0  0  0  0  0  0  0  0  0  0  0
  -27.8680   -9.2260  -30.2420 C   0  0  0  0  0  0  0  0  0  0  0  0
  -28.5450   -8.1890  -29.6320 C   0  0  0  0  0  0  0  0  0  0  0  0
  1  2  2  0
  1  3  1  0
  1  7  1  0
  2  4  1  0
  3  8  1  0
  4  5  2  0
  5  6  1  0
  6  7  2  0
  7  9  1  0
  8  9  2  0
M  END
>  <name>  (2) 
Car Nac Nd0 Car Car Car Car Car Car

>  <indices>  (2) 
[0, 1, 2]

>  <tasks>  (2) 
probe_placing close_aromatic_ring close_aromatic_ring close_aromatic_ring close_aromatic_ring ring_built build_to_Nd0 close_aromatic_ring

>  <prot_clashes>  (2) 
1

>  <NBS phar>  (2) 
0.2

>  <NBS_non-phar>  (2) 
0.6367492145962186

>  <NBS>  (2) 
0.8367492145962185

>  <source_stage>  (2) 
scored

>  <source_iter>  (2) 
6

>  <source_parent_mol>  (2) 
0

>  <source_scenario>  (2) 
1 2 2 1 0 0

>  <source_rank_in_scored_call>  (2) 
15

>  <source_current_task>  (2) 
close_aromatic_ring

>  <scenario>  (2) 
1 2 2 1 0 0

>  <current_task>  (2) 
no_task

>  <ref_match>  (2) 
1

>  <ref_match_iter>  (2) 
6

>  <ref_match_stage>  (2) 
selected_3_final_beam

>  <ref_match_index_in_stage_call>  (2) 
1

>  <scenario_at_ref_check>  (2) 
1 2 2 1 0 0

>  <current_task_at_ref_check>  (2) 
close_aromatic_ring

>  <scenario_original>  (2) 
1 2 2 1 0 0

>  <current_task_original>  (2) 
no_task

>  <num_atom_types>  (2) 
9

$$$$
