
     RDKit          3D

 10 11  0  0  0  0  0  0  0  0999 V2000
  -27.8779   -7.5815  -31.1793 C   0  0  0  0  0  0  0  0  0  0  0  0
  -27.5855   -6.6352  -32.0772 N   0  0  0  0  0  0  0  0  0  0  0  0
  -27.7543   -8.9219  -31.2047 N   0  0  0  0  0  0  0  0  0  0  0  0
  -27.7958   -5.3090  -31.8400 C   0  0  0  0  0  0  0  0  0  0  0  0
  -28.3299   -4.9112  -30.6330 C   0  0  0  0  0  0  0  0  0  0  0  0
  -28.6380   -5.8933  -29.6902 C   0  0  0  0  0  0  0  0  0  0  0  0
  -28.4146   -7.2391  -29.9548 C   0  0  0  0  0  0  0  0  0  0  0  0
  -28.2005   -9.4396  -30.0231 C   0  0  0  0  0  0  0  0  0  0  0  0
  -28.6205   -8.3878  -29.2244 C   0  0  0  0  0  0  0  0  0  0  0  0
  -28.6384   -3.6655  -30.1426 N   0  0  0  0  0  0  0  0  0  0  0  0
  1  2  2  0
  1  3  1  0
  2  4  1  0
  4  5  2  0
  5  6  1  0
  6  7  2  0
  1  7  1  0
  3  8  1  0
  8  9  2  0
  7  9  1  0
  5 10  1  0
M  END
>  <name>  (1) 
Car Nac Nd0 Car Car Car Car Car Car Nd0

>  <indices>  (1) 
[0, 1, 2]

>  <tasks>  (1) 
probe_placing close_aromatic_ring close_aromatic_ring close_aromatic_ring close_aromatic_ring ring_built build_to_Nd0 close_aromatic_ring

>  <prot_clashes>  (1) 
0

>  <NBS phar>  (1) 
0.2

>  <NBS_non-phar>  (1) 
0.7091254234313965

>  <NBS>  (1) 
0.9091254234313966

>  <source_stage>  (1) 
scored

>  <source_iter>  (1) 
7

>  <source_parent_mol>  (1) 
0

>  <source_scenario>  (1) 
1 1 2 0 0 0 0

>  <source_rank_in_scored_call>  (1) 
20

>  <source_current_task>  (1) 
no_task

>  <scenario>  (1) 
1 1 2 0 0 0

>  <current_task>  (1) 
build_to_Nd0

>  <initiate_ring_bisect>  (1) 


>  <ref_match>  (1) 
1

>  <ref_match_iter>  (1) 
7

>  <ref_match_stage>  (1) 
selected_2_grouped

>  <ref_match_index_in_stage_call>  (1) 
45

>  <scenario_at_ref_check>  (1) 
1 1 2 0 0 0 0

>  <current_task_at_ref_check>  (1) 
no_task

>  <scenario_original>  (1) 
1 1 2 0 0 0

>  <current_task_original>  (1) 
build_to_Nd0

>  <num_atom_types>  (1) 
10

$$$$

     RDKit          3D

 10 11  0  0  0  0  0  0  0  0999 V2000
  -27.8779   -7.5815  -31.1793 C   0  0  0  0  0  0  0  0  0  0  0  0
  -27.5855   -6.6352  -32.0772 N   0  0  0  0  0  0  0  0  0  0  0  0
  -27.7543   -8.9219  -31.2047 N   0  0  0  0  0  0  0  0  0  0  0  0
  -27.7958   -5.3090  -31.8400 C   0  0  0  0  0  0  0  0  0  0  0  0
  -28.3299   -4.9112  -30.6330 C   0  0  0  0  0  0  0  0  0  0  0  0
  -28.6380   -5.8933  -29.6902 C   0  0  0  0  0  0  0  0  0  0  0  0
  -28.4146   -7.2391  -29.9548 C   0  0  0  0  0  0  0  0  0  0  0  0
  -28.2005   -9.4396  -30.0231 C   0  0  0  0  0  0  0  0  0  0  0  0
  -28.6205   -8.3878  -29.2244 C   0  0  0  0  0  0  0  0  0  0  0  0
  -28.4604   -3.5440  -30.5964 N   0  0  0  0  0  0  0  0  0  0  0  0
  1  2  2  0
  1  3  1  0
  2  4  1  0
  4  5  2  0
  5  6  1  0
  6  7  2  0
  1  7  1  0
  3  8  1  0
  8  9  2  0
  7  9  1  0
  5 10  1  0
M  END
>  <name>  (2) 
Car Nac Nd0 Car Car Car Car Car Car Nd0

>  <indices>  (2) 
[0, 1, 2]

>  <tasks>  (2) 
probe_placing close_aromatic_ring close_aromatic_ring close_aromatic_ring close_aromatic_ring ring_built build_to_Nd0 close_aromatic_ring

>  <prot_clashes>  (2) 
0

>  <NBS phar>  (2) 
0.2

>  <NBS_non-phar>  (2) 
0.7086950302124023

>  <NBS>  (2) 
0.9086950302124024

>  <source_stage>  (2) 
scored

>  <source_iter>  (2) 
7

>  <source_parent_mol>  (2) 
0

>  <source_scenario>  (2) 
1 1 2 0 0 0 0

>  <source_rank_in_scored_call>  (2) 
21

>  <source_current_task>  (2) 
no_task

>  <scenario>  (2) 
1 1 2 0 0 0

>  <current_task>  (2) 
build_to_Nd0

>  <initiate_ring_bisect>  (2) 


>  <ref_match>  (2) 
1

>  <ref_match_iter>  (2) 
7

>  <ref_match_stage>  (2) 
selected_2_grouped

>  <ref_match_index_in_stage_call>  (2) 
46

>  <scenario_at_ref_check>  (2) 
1 1 2 0 0 0 0

>  <current_task_at_ref_check>  (2) 
no_task

>  <scenario_original>  (2) 
1 1 2 0 0 0

>  <current_task_original>  (2) 
build_to_Nd0

>  <num_atom_types>  (2) 
10

$$$$

     RDKit          3D

 10 11  0  0  0  0  0  0  0  0999 V2000
  -27.8779   -7.5815  -31.1793 C   0  0  0  0  0  0  0  0  0  0  0  0
  -27.5855   -6.6352  -32.0772 N   0  0  0  0  0  0  0  0  0  0  0  0
  -27.7543   -8.9219  -31.2047 N   0  0  0  0  0  0  0  0  0  0  0  0
  -27.7958   -5.3090  -31.8400 C   0  0  0  0  0  0  0  0  0  0  0  0
  -28.3299   -4.9112  -30.6330 C   0  0  0  0  0  0  0  0  0  0  0  0
  -28.6380   -5.8933  -29.6902 C   0  0  0  0  0  0  0  0  0  0  0  0
  -28.4146   -7.2391  -29.9548 C   0  0  0  0  0  0  0  0  0  0  0  0
  -28.2005   -9.4396  -30.0231 C   0  0  0  0  0  0  0  0  0  0  0  0
  -28.6205   -8.3878  -29.2244 C   0  0  0  0  0  0  0  0  0  0  0  0
  -28.5532   -3.5824  -30.3650 N   0  0  0  0  0  0  0  0  0  0  0  0
  1  2  2  0
  1  3  1  0
  2  4  1  0
  4  5  2  0
  5  6  1  0
  6  7  2  0
  1  7  1  0
  3  8  1  0
  8  9  2  0
  7  9  1  0
  5 10  1  0
M  END
>  <name>  (3) 
Car Nac Nd0 Car Car Car Car Car Car Nd0

>  <indices>  (3) 
[0, 1, 2]

>  <tasks>  (3) 
probe_placing close_aromatic_ring close_aromatic_ring close_aromatic_ring close_aromatic_ring ring_built build_to_Nd0 close_aromatic_ring

>  <prot_clashes>  (3) 
0

>  <NBS phar>  (3) 
0.2

>  <NBS_non-phar>  (3) 
0.7047318458557129

>  <NBS>  (3) 
0.904731845855713

>  <source_stage>  (3) 
scored

>  <source_iter>  (3) 
7

>  <source_parent_mol>  (3) 
0

>  <source_scenario>  (3) 
1 1 2 0 0 0 0

>  <source_rank_in_scored_call>  (3) 
28

>  <source_current_task>  (3) 
no_task

>  <scenario>  (3) 
1 1 2 0 0 0

>  <current_task>  (3) 
build_to_Nd0

>  <ref_match>  (3) 
1

>  <ref_match_iter>  (3) 
7

>  <ref_match_stage>  (3) 
selected_2_grouped

>  <ref_match_index_in_stage_call>  (3) 
47

>  <scenario_at_ref_check>  (3) 
1 1 2 0 0 0 0

>  <current_task_at_ref_check>  (3) 
no_task

>  <scenario_original>  (3) 
1 1 2 0 0 0

>  <current_task_original>  (3) 
build_to_Nd0

>  <num_atom_types>  (3) 
10

$$$$

     RDKit          3D

 10 11  0  0  0  0  0  0  0  0999 V2000
  -28.0950   -7.1900  -31.9630 C   0  0  0  0  0  0  0  0  0  0  0  0
  -27.5210   -6.4370  -32.9080 N   0  0  0  0  0  0  0  0  0  0  0  0
  -28.3090   -8.5150  -31.8700 N   0  0  0  0  0  0  0  0  0  0  0  0
  -27.4060   -5.0830  -32.7980 C   0  0  0  0  0  0  0  0  0  0  0  0
  -27.8930   -4.4490  -31.6750 C   0  0  0  0  0  0  0  0  0  0  0  0
  -28.4930   -5.2270  -30.6830 C   0  0  0  0  0  0  0  0  0  0  0  0
  -28.6000   -6.6060  -30.8190 C   0  0  0  0  0  0  0  0  0  0  0  0
  -28.9410   -8.7880  -30.6900 C   0  0  0  0  0  0  0  0  0  0  0  0
  -29.1290   -7.5920  -30.0160 C   0  0  0  0  0  0  0  0  0  0  0  0
  -27.6780   -3.0950  -31.7600 N   0  0  0  0  0  0  0  0  0  0  0  0
  1  2  2  0
  1  3  1  0
  1  7  1  0
  2  4  1  0
  3  8  1  0
  4  5  2  0
  5 10  1  0
  5  6  1  0
  6  7  2  0
  7  9  1  0
  8  9  2  0
M  END
>  <name>  (4) 
Car Nac Nd0 Car Car Car Car Car Car Nd0

>  <indices>  (4) 
[0, 1, 2]

>  <tasks>  (4) 
probe_placing close_aromatic_ring close_aromatic_ring close_aromatic_ring close_aromatic_ring ring_built build_to_Nd0 close_aromatic_ring

>  <prot_clashes>  (4) 
4

>  <NBS phar>  (4) 
0.2

>  <NBS_non-phar>  (4) 
0.6359573841094971

>  <NBS>  (4) 
0.8359573841094972

>  <source_stage>  (4) 
scored

>  <source_iter>  (4) 
7

>  <source_parent_mol>  (4) 
0

>  <source_scenario>  (4) 
1 1 2 0 0 0 0

>  <source_rank_in_scored_call>  (4) 
62

>  <source_current_task>  (4) 
no_task

>  <scenario>  (4) 
1 1 2 0 0 0

>  <current_task>  (4) 
build_to_Nd0

>  <initiate_ring_bisect>  (4) 


>  <ref_match>  (4) 
1

>  <ref_match_iter>  (4) 
7

>  <ref_match_stage>  (4) 
selected_2_grouped

>  <ref_match_index_in_stage_call>  (4) 
48

>  <scenario_at_ref_check>  (4) 
1 1 2 0 0 0 0

>  <current_task_at_ref_check>  (4) 
no_task

>  <scenario_original>  (4) 
1 1 2 0 0 0

>  <current_task_original>  (4) 
build_to_Nd0

>  <num_atom_types>  (4) 
10

$$$$
