
     RDKit          3D

  4  3  0  0  0  0  0  0  0  0999 V2000
  -27.8650   -7.7310  -31.7500 C   0  0  0  0  0  0  0  0  0  0  0  0
  -27.6820   -7.0250  -32.9020 N   0  0  0  0  0  0  0  0  0  0  0  0
  -27.6230   -9.1120  -31.7550 N   0  0  0  0  0  0  0  0  0  0  0  0
  -28.7540   -9.8600  -31.5320 C   0  0  0  0  0  0  0  0  0  0  0  0
  1  2  2  0
  1  3  1  0
  3  4  1  0
M  END
>  <name>  (1) 
Car Nac Nd0 Car

>  <indices>  (1) 
[0, 1, 2]

>  <dummy>  (1) 
1

>  <tasks>  (1) 
probe_placing

>  <current_task>  (1) 
close_aromatic_ring

>  <prot_clashes>  (1) 
2

>  <NBS phar>  (1) 
0.22000000000000003

>  <NBS_non-phar>  (1) 
0.9162927865982056

>  <NBS>  (1) 
1.1362927865982055

>  <source_stage>  (1) 
scored

>  <source_iter>  (1) 
1

>  <source_parent_mol>  (1) 
0

>  <source_scenario>  (1) 
0

>  <source_rank_in_scored_call>  (1) 
0

>  <source_current_task>  (1) 
close_aromatic_ring

$$$$

     RDKit          3D

  4  3  0  0  0  0  0  0  0  0999 V2000
  -27.8640   -7.4760  -31.1990 C   0  0  0  0  0  0  0  0  0  0  0  0
  -27.5380   -6.7190  -32.2850 N   0  0  0  0  0  0  0  0  0  0  0  0
  -27.6840   -8.8650  -31.2620 N   0  0  0  0  0  0  0  0  0  0  0  0
  -28.0975   -9.2947  -30.0006 C   0  0  0  0  0  0  0  0  0  0  0  0
  1  2  2  0
  1  3  1  0
  3  4  1  0
M  END
>  <name>  (2) 
Car Nac Nd0 Car

>  <indices>  (2) 
[0, 1, 2]

>  <dummy>  (2) 
1

>  <tasks>  (2) 
probe_placing

>  <current_task>  (2) 
close_aromatic_ring

>  <prot_clashes>  (2) 
0

>  <NBS phar>  (2) 
0.2

>  <NBS_non-phar>  (2) 
0.9266523122787476

>  <NBS>  (2) 
1.1266523122787475

>  <source_stage>  (2) 
scored

>  <source_iter>  (2) 
1

>  <source_parent_mol>  (2) 
0

>  <source_scenario>  (2) 
0

>  <source_rank_in_scored_call>  (2) 
1

>  <source_current_task>  (2) 
close_aromatic_ring

$$$$

     RDKit          3D

  4  3  0  0  0  0  0  0  0  0999 V2000
  -27.8640   -7.4760  -31.1990 C   0  0  0  0  0  0  0  0  0  0  0  0
  -27.5380   -6.7190  -32.2850 N   0  0  0  0  0  0  0  0  0  0  0  0
  -27.6840   -8.8650  -31.2620 N   0  0  0  0  0  0  0  0  0  0  0  0
  -28.0717   -9.6565  -30.2639 C   0  0  0  0  0  0  0  0  0  0  0  0
  1  2  2  0
  1  3  1  0
  3  4  1  0
M  END
>  <name>  (3) 
Car Nac Nd0 Car

>  <indices>  (3) 
[0, 1, 2]

>  <dummy>  (3) 
1

>  <tasks>  (3) 
probe_placing

>  <current_task>  (3) 
close_aromatic_ring

>  <prot_clashes>  (3) 
1

>  <NBS phar>  (3) 
0.2

>  <NBS_non-phar>  (3) 
0.9113326072692871

>  <NBS>  (3) 
1.111332607269287

>  <source_stage>  (3) 
scored

>  <source_iter>  (3) 
1

>  <source_parent_mol>  (3) 
0

>  <source_scenario>  (3) 
0

>  <source_rank_in_scored_call>  (3) 
2

>  <source_current_task>  (3) 
close_aromatic_ring

$$$$

     RDKit          3D

  4  3  0  0  0  0  0  0  0  0999 V2000
  -27.8520   -7.5930  -31.6930 C   0  0  0  0  0  0  0  0  0  0  0  0
  -27.6900   -6.9640  -32.8920 N   0  0  0  0  0  0  0  0  0  0  0  0
  -27.5990   -8.9690  -31.6090 N   0  0  0  0  0  0  0  0  0  0  0  0
  -27.8310   -9.6450  -30.4860 C   0  0  0  0  0  0  0  0  0  0  0  0
  1  2  2  0
  1  3  1  0
  3  4  1  0
M  END
>  <name>  (4) 
Car Nac Nd0 Car

>  <indices>  (4) 
[0, 1, 2]

>  <dummy>  (4) 
1

>  <tasks>  (4) 
probe_placing

>  <current_task>  (4) 
close_aromatic_ring

>  <prot_clashes>  (4) 
3

>  <NBS phar>  (4) 
0.2

>  <NBS_non-phar>  (4) 
0.8933283090591431

>  <NBS>  (4) 
1.093328309059143

>  <source_stage>  (4) 
scored

>  <source_iter>  (4) 
1

>  <source_parent_mol>  (4) 
0

>  <source_scenario>  (4) 
0

>  <source_rank_in_scored_call>  (4) 
3

>  <source_current_task>  (4) 
close_aromatic_ring

$$$$

     RDKit          3D

  4  3  0  0  0  0  0  0  0  0999 V2000
  -27.7420   -7.6240  -31.6310 C   0  0  0  0  0  0  0  0  0  0  0  0
  -27.7110   -7.1530  -32.9100 N   0  0  0  0  0  0  0  0  0  0  0  0
  -27.2800   -8.9230  -31.3750 N   0  0  0  0  0  0  0  0  0  0  0  0
  -27.4460   -9.0510  -29.9960 C   0  0  0  0  0  0  0  0  0  0  0  0
  1  2  2  0
  1  3  1  0
  3  4  1  0
M  END
>  <name>  (5) 
Car Nac Nd0 Car

>  <indices>  (5) 
[0, 1, 2]

>  <dummy>  (5) 
1

>  <tasks>  (5) 
probe_placing

>  <current_task>  (5) 
close_aromatic_ring

>  <prot_clashes>  (5) 
3

>  <NBS phar>  (5) 
0.22000000000000003

>  <NBS_non-phar>  (5) 
0.8518921732902527

>  <NBS>  (5) 
1.0718921732902527

>  <source_stage>  (5) 
scored

>  <source_iter>  (5) 
1

>  <source_parent_mol>  (5) 
0

>  <source_scenario>  (5) 
0

>  <source_rank_in_scored_call>  (5) 
4

>  <source_current_task>  (5) 
close_aromatic_ring

$$$$

     RDKit          3D

  4  3  0  0  0  0  0  0  0  0999 V2000
  -27.8640   -7.4760  -31.1990 C   0  0  0  0  0  0  0  0  0  0  0  0
  -27.5380   -6.7190  -32.2850 N   0  0  0  0  0  0  0  0  0  0  0  0
  -27.6840   -8.8650  -31.2620 N   0  0  0  0  0  0  0  0  0  0  0  0
  -28.8645   -9.5655  -31.1911 C   0  0  0  0  0  0  0  0  0  0  0  0
  1  2  2  0
  1  3  1  0
  3  4  1  0
M  END
>  <name>  (6) 
Car Nac Nd0 Car

>  <indices>  (6) 
[0, 1, 2]

>  <dummy>  (6) 
1

>  <tasks>  (6) 
probe_placing

>  <current_task>  (6) 
close_aromatic_ring

>  <prot_clashes>  (6) 
2

>  <NBS phar>  (6) 
0.2

>  <NBS_non-phar>  (6) 
0.7305045127868652

>  <NBS>  (6) 
0.9305045127868652

>  <source_stage>  (6) 
scored

>  <source_iter>  (6) 
1

>  <source_parent_mol>  (6) 
0

>  <source_scenario>  (6) 
0

>  <source_rank_in_scored_call>  (6) 
5

>  <source_current_task>  (6) 
close_aromatic_ring

$$$$

     RDKit          3D

  4  3  0  0  0  0  0  0  0  0999 V2000
  -27.8640   -7.4760  -31.1990 C   0  0  0  0  0  0  0  0  0  0  0  0
  -27.5380   -6.7190  -32.2850 N   0  0  0  0  0  0  0  0  0  0  0  0
  -27.6840   -8.8650  -31.2620 N   0  0  0  0  0  0  0  0  0  0  0  0
  -27.8714   -9.7090  -32.3537 C   0  0  0  0  0  0  0  0  0  0  0  0
  1  2  2  0
  1  3  1  0
  3  4  1  0
M  END
>  <name>  (7) 
Car Nac Nd0 Car

>  <indices>  (7) 
[0, 1, 2]

>  <dummy>  (7) 
1

>  <tasks>  (7) 
probe_placing

>  <current_task>  (7) 
close_aromatic_ring

>  <prot_clashes>  (7) 
3

>  <NBS phar>  (7) 
0.2

>  <NBS_non-phar>  (7) 
0.6889480352401733

>  <NBS>  (7) 
0.8889480352401733

>  <source_stage>  (7) 
scored

>  <source_iter>  (7) 
1

>  <source_parent_mol>  (7) 
0

>  <source_scenario>  (7) 
0

>  <source_rank_in_scored_call>  (7) 
6

>  <source_current_task>  (7) 
close_aromatic_ring

$$$$

     RDKit          3D

  4  3  0  0  0  0  0  0  0  0999 V2000
  -27.8640   -7.4760  -31.1990 C   0  0  0  0  0  0  0  0  0  0  0  0
  -27.5380   -6.7190  -32.2850 N   0  0  0  0  0  0  0  0  0  0  0  0
  -27.6840   -8.8650  -31.2620 N   0  0  0  0  0  0  0  0  0  0  0  0
  -26.7067   -9.5040  -30.6833 C   0  0  0  0  0  0  0  0  0  0  0  0
  1  2  2  0
  1  3  1  0
  3  4  1  0
M  END
>  <name>  (8) 
Car Nac Nd0 Car

>  <indices>  (8) 
[0, 1, 2]

>  <dummy>  (8) 
1

>  <tasks>  (8) 
probe_placing

>  <current_task>  (8) 
close_aromatic_ring

>  <prot_clashes>  (8) 
6

>  <NBS phar>  (8) 
0.2

>  <NBS_non-phar>  (8) 
0.6821233630180359

>  <NBS>  (8) 
0.8821233630180358

>  <source_stage>  (8) 
scored

>  <source_iter>  (8) 
1

>  <source_parent_mol>  (8) 
0

>  <source_scenario>  (8) 
0

>  <source_rank_in_scored_call>  (8) 
7

>  <source_current_task>  (8) 
close_aromatic_ring

$$$$

     RDKit          3D

  4  3  0  0  0  0  0  0  0  0999 V2000
  -27.8640   -7.4760  -31.1990 C   0  0  0  0  0  0  0  0  0  0  0  0
  -27.5380   -6.7190  -32.2850 N   0  0  0  0  0  0  0  0  0  0  0  0
  -27.6840   -8.8650  -31.2620 N   0  0  0  0  0  0  0  0  0  0  0  0
  -27.3551   -9.4958  -32.3716 C   0  0  0  0  0  0  0  0  0  0  0  0
  1  2  2  0
  1  3  1  0
  3  4  1  0
M  END
>  <name>  (9) 
Car Nac Nd0 Car

>  <indices>  (9) 
[0, 1, 2]

>  <dummy>  (9) 
1

>  <tasks>  (9) 
probe_placing

>  <current_task>  (9) 
close_aromatic_ring

>  <prot_clashes>  (9) 
3

>  <NBS phar>  (9) 
0.2

>  <NBS_non-phar>  (9) 
0.6815513968467712

>  <NBS>  (9) 
0.8815513968467712

>  <source_stage>  (9) 
scored

>  <source_iter>  (9) 
1

>  <source_parent_mol>  (9) 
0

>  <source_scenario>  (9) 
0

>  <source_rank_in_scored_call>  (9) 
8

>  <source_current_task>  (9) 
close_aromatic_ring

$$$$

     RDKit          3D

  4  3  0  0  0  0  0  0  0  0999 V2000
  -27.5260   -7.8030  -31.6100 C   0  0  0  0  0  0  0  0  0  0  0  0
  -27.6890   -7.3470  -32.8850 N   0  0  0  0  0  0  0  0  0  0  0  0
  -27.3950   -9.1820  -31.3950 N   0  0  0  0  0  0  0  0  0  0  0  0
  -28.0310  -10.2230  -32.0680 C   0  0  0  0  0  0  0  0  0  0  0  0
  1  2  2  0
  1  3  1  0
  3  4  1  0
M  END
>  <name>  (10) 
Car Nac Nd0 Car

>  <indices>  (10) 
[0, 1, 2]

>  <dummy>  (10) 
1

>  <tasks>  (10) 
probe_placing

>  <current_task>  (10) 
close_aromatic_ring

>  <prot_clashes>  (10) 
2

>  <NBS phar>  (10) 
0.2

>  <NBS_non-phar>  (10) 
0.6501397490501404

>  <NBS>  (10) 
0.8501397490501403

>  <source_stage>  (10) 
scored

>  <source_iter>  (10) 
1

>  <source_parent_mol>  (10) 
0

>  <source_scenario>  (10) 
0

>  <source_rank_in_scored_call>  (10) 
9

>  <source_current_task>  (10) 
close_aromatic_ring

$$$$

     RDKit          3D

  4  3  0  0  0  0  0  0  0  0999 V2000
  -28.3400   -7.6640  -31.8730 C   0  0  0  0  0  0  0  0  0  0  0  0
  -27.7130   -7.0540  -32.9180 N   0  0  0  0  0  0  0  0  0  0  0  0
  -28.1850   -9.0470  -31.7030 N   0  0  0  0  0  0  0  0  0  0  0  0
  -27.4180   -9.5930  -30.8020 C   0  0  0  0  0  0  0  0  0  0  0  0
  1  2  2  0
  1  3  1  0
  3  4  1  0
M  END
>  <name>  (11) 
Car Nac Nd0 Car

>  <indices>  (11) 
[0, 1, 2]

>  <dummy>  (11) 
1

>  <tasks>  (11) 
probe_placing

>  <current_task>  (11) 
close_aromatic_ring

>  <prot_clashes>  (11) 
4

>  <NBS phar>  (11) 
0.2

>  <NBS_non-phar>  (11) 
0.5850861668586731

>  <NBS>  (11) 
0.785086166858673

>  <source_stage>  (11) 
scored

>  <source_iter>  (11) 
1

>  <source_parent_mol>  (11) 
0

>  <source_scenario>  (11) 
0

>  <source_rank_in_scored_call>  (11) 
10

>  <source_current_task>  (11) 
close_aromatic_ring

$$$$

     RDKit          3D

  4  3  0  0  0  0  0  0  0  0999 V2000
  -27.4640   -7.9220  -31.6080 C   0  0  0  0  0  0  0  0  0  0  0  0
  -27.7040   -7.4830  -32.8760 N   0  0  0  0  0  0  0  0  0  0  0  0
  -27.4570   -9.3020  -31.3580 N   0  0  0  0  0  0  0  0  0  0  0  0
  -27.8200  -10.1950  -32.2580 C   0  0  0  0  0  0  0  0  0  0  0  0
  1  2  2  0
  1  3  1  0
  3  4  1  0
M  END
>  <name>  (12) 
Car Nac Nd0 Car

>  <indices>  (12) 
[0, 1, 2]

>  <dummy>  (12) 
1

>  <tasks>  (12) 
probe_placing

>  <current_task>  (12) 
close_aromatic_ring

>  <prot_clashes>  (12) 
3

>  <NBS phar>  (12) 
0.2

>  <NBS_non-phar>  (12) 
0.505124568939209

>  <NBS>  (12) 
0.7051245689392089

>  <source_stage>  (12) 
scored

>  <source_iter>  (12) 
1

>  <source_parent_mol>  (12) 
0

>  <source_scenario>  (12) 
0

>  <source_rank_in_scored_call>  (12) 
11

>  <source_current_task>  (12) 
close_aromatic_ring

$$$$

     RDKit          3D

  4  3  0  0  0  0  0  0  0  0999 V2000
  -28.5510   -7.9930  -32.2750 C   0  0  0  0  0  0  0  0  0  0  0  0
  -27.3520   -7.3830  -32.4980 N   0  0  0  0  0  0  0  0  0  0  0  0
  -28.7780   -9.2630  -32.8260 N   0  0  0  0  0  0  0  0  0  0  0  0
  -28.3210  -10.5590  -32.1750 C   0  0  0  0  0  0  0  0  0  0  0  0
  1  3  1  0
  1  2  2  0
  3  4  1  0
M  END
>  <name>  (13) 
Car Nac Nd0 Car

>  <indices>  (13) 
[0, 1, 2]

>  <dummy>  (13) 
1

>  <tasks>  (13) 
probe_placing

>  <current_task>  (13) 
close_aromatic_ring

>  <prot_clashes>  (13) 
6

>  <NBS phar>  (13) 
0.1

>  <NBS_non-phar>  (13) 
0.3227344751358032

>  <NBS>  (13) 
0.4227344751358032

>  <source_stage>  (13) 
scored

>  <source_iter>  (13) 
1

>  <source_parent_mol>  (13) 
0

>  <source_scenario>  (13) 
0

>  <source_rank_in_scored_call>  (13) 
12

>  <source_current_task>  (13) 
close_aromatic_ring

$$$$

     RDKit          3D

  5  4  0  0  0  0  0  0  0  0999 V2000
  -27.8650   -7.7310  -31.7500 C   0  0  0  0  0  0  0  0  0  0  0  0
  -27.6820   -7.0250  -32.9020 N   0  0  0  0  0  0  0  0  0  0  0  0
  -27.6230   -9.1120  -31.7550 N   0  0  0  0  0  0  0  0  0  0  0  0
  -28.7540   -9.8600  -31.5320 C   0  0  0  0  0  0  0  0  0  0  0  0
  -28.7504  -10.7735  -30.3995 C   0  0  0  0  0  0  0  0  0  0  0  0
  1  2  2  0
  1  3  1  0
  3  4  1  0
  4  5  2  0
M  END
>  <name>  (1) 
Car Nac Nd0 Car Car

>  <indices>  (1) 
[0, 1, 2]

>  <dummy>  (1) 
1

>  <tasks>  (1) 
probe_placing close_aromatic_ring

>  <current_task>  (1) 
close_aromatic_ring

>  <prot_clashes>  (1) 
1

>  <NBS phar>  (1) 
0.22000000000000003

>  <NBS_non-phar>  (1) 
0.8998829841613769

>  <NBS>  (1) 
1.1198829841613769

>  <source_stage>  (1) 
scored

>  <source_iter>  (1) 
2

>  <source_parent_mol>  (1) 
0

>  <source_scenario>  (1) 
0 0

>  <source_rank_in_scored_call>  (1) 
0

>  <source_current_task>  (1) 
close_aromatic_ring

>  <rotatable_bond_torsions>  (1) 
1,0,2,3

>  <scenario>  (1) 
0

$$$$

     RDKit          3D

  5  4  0  0  0  0  0  0  0  0999 V2000
  -27.8650   -7.7310  -31.7500 C   0  0  0  0  0  0  0  0  0  0  0  0
  -27.6820   -7.0250  -32.9020 N   0  0  0  0  0  0  0  0  0  0  0  0
  -27.6230   -9.1120  -31.7550 N   0  0  0  0  0  0  0  0  0  0  0  0
  -28.7540   -9.8600  -31.5320 C   0  0  0  0  0  0  0  0  0  0  0  0
  -28.7601  -10.6310  -30.3603 C   0  0  0  0  0  0  0  0  0  0  0  0
  1  2  2  0
  1  3  1  0
  3  4  1  0
  4  5  1  0
M  END
>  <name>  (2) 
Car Nac Nd0 Car Car

>  <indices>  (2) 
[0, 1, 2]

>  <dummy>  (2) 
1

>  <tasks>  (2) 
probe_placing close_aromatic_ring

>  <current_task>  (2) 
close_aromatic_ring

>  <prot_clashes>  (2) 
2

>  <NBS phar>  (2) 
0.22000000000000003

>  <NBS_non-phar>  (2) 
0.899344539642334

>  <NBS>  (2) 
1.119344539642334

>  <source_stage>  (2) 
scored

>  <source_iter>  (2) 
2

>  <source_parent_mol>  (2) 
0

>  <source_scenario>  (2) 
0 0

>  <source_rank_in_scored_call>  (2) 
1

>  <source_current_task>  (2) 
close_aromatic_ring

>  <rotatable_bond_torsions>  (2) 
1,0,2,3

>  <scenario>  (2) 
0

$$$$

     RDKit          3D

  5  4  0  0  0  0  0  0  0  0999 V2000
  -27.8650   -7.7310  -31.7500 C   0  0  0  0  0  0  0  0  0  0  0  0
  -27.6820   -7.0250  -32.9020 N   0  0  0  0  0  0  0  0  0  0  0  0
  -27.6230   -9.1120  -31.7550 N   0  0  0  0  0  0  0  0  0  0  0  0
  -28.7540   -9.8600  -31.5320 C   0  0  0  0  0  0  0  0  0  0  0  0
  -28.5566  -11.2637  -32.0069 C   0  0  0  0  0  0  0  0  0  0  0  0
  1  2  2  0
  1  3  1  0
  3  4  1  0
  4  5  1  0
M  END
>  <name>  (3) 
Car Nac Nd0 Car Car

>  <indices>  (3) 
[0, 1, 2]

>  <dummy>  (3) 
1

>  <tasks>  (3) 
probe_placing close_aromatic_ring

>  <current_task>  (3) 
close_aromatic_ring

>  <prot_clashes>  (3) 
1

>  <NBS phar>  (3) 
0.22000000000000003

>  <NBS_non-phar>  (3) 
0.857022762298584

>  <NBS>  (3) 
1.077022762298584

>  <source_stage>  (3) 
scored

>  <source_iter>  (3) 
2

>  <source_parent_mol>  (3) 
0

>  <source_scenario>  (3) 
0 0

>  <source_rank_in_scored_call>  (3) 
2

>  <source_current_task>  (3) 
close_aromatic_ring

>  <rotatable_bond_torsions>  (3) 
1,0,2,3

>  <scenario>  (3) 
0

$$$$

     RDKit          3D

  5  4  0  0  0  0  0  0  0  0999 V2000
  -27.8950   -7.7270  -31.7460 C   0  0  0  0  0  0  0  0  0  0  0  0
  -27.6880   -7.0130  -32.8890 N   0  0  0  0  0  0  0  0  0  0  0  0
  -27.6840   -9.1130  -31.7630 N   0  0  0  0  0  0  0  0  0  0  0  0
  -28.8330   -9.8380  -31.5570 C   0  0  0  0  0  0  0  0  0  0  0  0
  -28.6630  -11.2410  -32.0450 C   0  0  0  0  0  0  0  0  0  0  0  0
  1  2  2  0
  1  3  1  0
  3  4  1  0
  4  5  1  0
M  END
>  <name>  (4) 
Car Nac Nd0 Car Car

>  <indices>  (4) 
[0, 1, 2]

>  <dummy>  (4) 
1

>  <tasks>  (4) 
probe_placing close_aromatic_ring

>  <current_task>  (4) 
close_aromatic_ring

>  <prot_clashes>  (4) 
2

>  <NBS phar>  (4) 
0.22000000000000003

>  <NBS_non-phar>  (4) 
0.8282627105712891

>  <NBS>  (4) 
1.0482627105712892

>  <source_stage>  (4) 
scored

>  <source_iter>  (4) 
2

>  <source_parent_mol>  (4) 
0

>  <source_scenario>  (4) 
0 0

>  <source_rank_in_scored_call>  (4) 
3

>  <source_current_task>  (4) 
close_aromatic_ring

>  <rotatable_bond_torsions>  (4) 
1,0,2,3

>  <scenario>  (4) 
0

$$$$

     RDKit          3D

  5  4  0  0  0  0  0  0  0  0999 V2000
  -28.0010   -7.6970  -31.7580 C   0  0  0  0  0  0  0  0  0  0  0  0
  -27.6900   -6.9960  -32.8850 N   0  0  0  0  0  0  0  0  0  0  0  0
  -27.9610   -9.0980  -31.7980 N   0  0  0  0  0  0  0  0  0  0  0  0
  -29.1930   -9.6800  -31.6190 C   0  0  0  0  0  0  0  0  0  0  0  0
  -29.3490  -10.6130  -30.5140 C   0  0  0  0  0  0  0  0  0  0  0  0
  1  2  2  0
  1  3  1  0
  3  4  1  0
  4  5  2  0
M  END
>  <name>  (5) 
Car Nac Nd0 Car Car

>  <indices>  (5) 
[0, 1, 2]

>  <dummy>  (5) 
1

>  <tasks>  (5) 
probe_placing close_aromatic_ring

>  <current_task>  (5) 
close_aromatic_ring

>  <prot_clashes>  (5) 
3

>  <NBS phar>  (5) 
0.2

>  <NBS_non-phar>  (5) 
0.8335418701171875

>  <NBS>  (5) 
1.0335418701171875

>  <source_stage>  (5) 
scored

>  <source_iter>  (5) 
2

>  <source_parent_mol>  (5) 
0

>  <source_scenario>  (5) 
0 0

>  <source_rank_in_scored_call>  (5) 
4

>  <source_current_task>  (5) 
close_aromatic_ring

>  <rotatable_bond_torsions>  (5) 
1,0,2,3

>  <scenario>  (5) 
0

$$$$

     RDKit          3D

  5  4  0  0  0  0  0  0  0  0999 V2000
  -28.0170   -7.6850  -31.7640 C   0  0  0  0  0  0  0  0  0  0  0  0
  -27.6930   -7.0090  -32.9030 N   0  0  0  0  0  0  0  0  0  0  0  0
  -27.9800   -9.0860  -31.7720 N   0  0  0  0  0  0  0  0  0  0  0  0
  -29.2160   -9.6610  -31.5940 C   0  0  0  0  0  0  0  0  0  0  0  0
  -29.3750  -10.4270  -30.4290 C   0  0  0  0  0  0  0  0  0  0  0  0
  1  2  2  0
  1  3  1  0
  3  4  1  0
  4  5  1  0
M  END
>  <name>  (6) 
Car Nac Nd0 Car Car

>  <indices>  (6) 
[0, 1, 2]

>  <dummy>  (6) 
1

>  <tasks>  (6) 
probe_placing close_aromatic_ring

>  <current_task>  (6) 
close_aromatic_ring

>  <prot_clashes>  (6) 
3

>  <NBS phar>  (6) 
0.2

>  <NBS_non-phar>  (6) 
0.7966331481933594

>  <NBS>  (6) 
0.9966331481933595

>  <source_stage>  (6) 
scored

>  <source_iter>  (6) 
2

>  <source_parent_mol>  (6) 
0

>  <source_scenario>  (6) 
0 0

>  <source_rank_in_scored_call>  (6) 
5

>  <source_current_task>  (6) 
close_aromatic_ring

>  <rotatable_bond_torsions>  (6) 
1,0,2,3

>  <scenario>  (6) 
0

$$$$

     RDKit          3D

  5  4  0  0  0  0  0  0  0  0999 V2000
  -27.8650   -7.7310  -31.7500 C   0  0  0  0  0  0  0  0  0  0  0  0
  -27.6820   -7.0250  -32.9020 N   0  0  0  0  0  0  0  0  0  0  0  0
  -27.6230   -9.1120  -31.7550 N   0  0  0  0  0  0  0  0  0  0  0  0
  -28.7540   -9.8600  -31.5320 C   0  0  0  0  0  0  0  0  0  0  0  0
  -28.5649  -11.2953  -31.6797 C   0  0  0  0  0  0  0  0  0  0  0  0
  1  2  2  0
  1  3  1  0
  3  4  1  0
  4  5  2  0
M  END
>  <name>  (7) 
Car Nac Nd0 Car Car

>  <indices>  (7) 
[0, 1, 2]

>  <dummy>  (7) 
1

>  <tasks>  (7) 
probe_placing close_aromatic_ring

>  <current_task>  (7) 
close_aromatic_ring

>  <prot_clashes>  (7) 
2

>  <NBS phar>  (7) 
0.22000000000000003

>  <NBS_non-phar>  (7) 
0.7753378391265869

>  <NBS>  (7) 
0.995337839126587

>  <source_stage>  (7) 
scored

>  <source_iter>  (7) 
2

>  <source_parent_mol>  (7) 
0

>  <source_scenario>  (7) 
0 0

>  <source_rank_in_scored_call>  (7) 
6

>  <source_current_task>  (7) 
close_aromatic_ring

>  <rotatable_bond_torsions>  (7) 
1,0,2,3

>  <scenario>  (7) 
0

$$$$

     RDKit          3D

  5  4  0  0  0  0  0  0  0  0999 V2000
  -27.8650   -7.7310  -31.7500 C   0  0  0  0  0  0  0  0  0  0  0  0
  -27.6820   -7.0250  -32.9020 N   0  0  0  0  0  0  0  0  0  0  0  0
  -27.6230   -9.1120  -31.7550 N   0  0  0  0  0  0  0  0  0  0  0  0
  -28.7540   -9.8600  -31.5320 C   0  0  0  0  0  0  0  0  0  0  0  0
  -29.8265   -8.9613  -31.3539 C   0  0  0  0  0  0  0  0  0  0  0  0
  1  2  2  0
  1  3  1  0
  3  4  1  0
  4  5  2  0
M  END
>  <name>  (8) 
Car Nac Nd0 Car Car

>  <indices>  (8) 
[0, 1, 2]

>  <dummy>  (8) 
1

>  <tasks>  (8) 
probe_placing close_aromatic_ring

>  <current_task>  (8) 
close_aromatic_ring

>  <prot_clashes>  (8) 
7

>  <NBS phar>  (8) 
0.22000000000000003

>  <NBS_non-phar>  (8) 
0.7484323978424072

>  <NBS>  (8) 
0.9684323978424072

>  <source_stage>  (8) 
scored

>  <source_iter>  (8) 
2

>  <source_parent_mol>  (8) 
0

>  <source_scenario>  (8) 
0 0

>  <source_rank_in_scored_call>  (8) 
7

>  <source_current_task>  (8) 
close_aromatic_ring

>  <rotatable_bond_torsions>  (8) 
1,0,2,3

>  <scenario>  (8) 
0

$$$$

     RDKit          3D

  5  4  0  0  0  0  0  0  0  0999 V2000
  -27.8650   -7.7310  -31.7500 C   0  0  0  0  0  0  0  0  0  0  0  0
  -27.6820   -7.0250  -32.9020 N   0  0  0  0  0  0  0  0  0  0  0  0
  -27.6230   -9.1120  -31.7550 N   0  0  0  0  0  0  0  0  0  0  0  0
  -28.7540   -9.8600  -31.5320 C   0  0  0  0  0  0  0  0  0  0  0  0
  -30.0247   -9.4119  -31.3075 C   0  0  0  0  0  0  0  0  0  0  0  0
  1  2  2  0
  1  3  1  0
  3  4  1  0
  4  5  2  0
M  END
>  <name>  (9) 
Car Nac Nd0 Car Car

>  <indices>  (9) 
[0, 1, 2]

>  <dummy>  (9) 
1

>  <tasks>  (9) 
probe_placing close_aromatic_ring

>  <current_task>  (9) 
close_aromatic_ring

>  <prot_clashes>  (9) 
7

>  <NBS phar>  (9) 
0.22000000000000003

>  <NBS_non-phar>  (9) 
0.7438793182373047

>  <NBS>  (9) 
0.9638793182373047

>  <source_stage>  (9) 
scored

>  <source_iter>  (9) 
2

>  <source_parent_mol>  (9) 
0

>  <source_scenario>  (9) 
0 0

>  <source_rank_in_scored_call>  (9) 
8

>  <source_current_task>  (9) 
close_aromatic_ring

>  <rotatable_bond_torsions>  (9) 
1,0,2,3

>  <scenario>  (9) 
0

$$$$

     RDKit          3D

  5  4  0  0  0  0  0  0  0  0999 V2000
  -27.8650   -7.7310  -31.7500 C   0  0  0  0  0  0  0  0  0  0  0  0
  -27.6820   -7.0250  -32.9020 N   0  0  0  0  0  0  0  0  0  0  0  0
  -27.6230   -9.1120  -31.7550 N   0  0  0  0  0  0  0  0  0  0  0  0
  -28.7540   -9.8600  -31.5320 C   0  0  0  0  0  0  0  0  0  0  0  0
  -29.2727  -10.7316  -32.5578 C   0  0  0  0  0  0  0  0  0  0  0  0
  1  2  2  0
  1  3  1  0
  3  4  1  0
  4  5  2  0
M  END
>  <name>  (10) 
Car Nac Nd0 Car Car

>  <indices>  (10) 
[0, 1, 2]

>  <dummy>  (10) 
1

>  <tasks>  (10) 
probe_placing close_aromatic_ring

>  <current_task>  (10) 
close_aromatic_ring

>  <prot_clashes>  (10) 
3

>  <NBS phar>  (10) 
0.22000000000000003

>  <NBS_non-phar>  (10) 
0.7330792903900146

>  <NBS>  (10) 
0.9530792903900147

>  <source_stage>  (10) 
scored

>  <source_iter>  (10) 
2

>  <source_parent_mol>  (10) 
0

>  <source_scenario>  (10) 
0 0

>  <source_rank_in_scored_call>  (10) 
9

>  <source_current_task>  (10) 
close_aromatic_ring

>  <rotatable_bond_torsions>  (10) 
1,0,2,3

>  <scenario>  (10) 
0

$$$$

     RDKit          3D

  5  4  0  0  0  0  0  0  0  0999 V2000
  -27.8100   -7.7510  -31.7060 C   0  0  0  0  0  0  0  0  0  0  0  0
  -27.6930   -7.0730  -32.8840 N   0  0  0  0  0  0  0  0  0  0  0  0
  -27.3380   -9.0690  -31.6330 N   0  0  0  0  0  0  0  0  0  0  0  0
  -28.3360   -9.9890  -31.4180 C   0  0  0  0  0  0  0  0  0  0  0  0
  -29.5510   -9.2800  -31.3290 C   0  0  0  0  0  0  0  0  0  0  0  0
  1  2  2  0
  1  3  1  0
  3  4  1  0
  4  5  2  0
M  END
>  <name>  (11) 
Car Nac Nd0 Car Car

>  <indices>  (11) 
[0, 1, 2]

>  <dummy>  (11) 
1

>  <tasks>  (11) 
probe_placing close_aromatic_ring

>  <current_task>  (11) 
close_aromatic_ring

>  <prot_clashes>  (11) 
6

>  <NBS phar>  (11) 
0.2

>  <NBS_non-phar>  (11) 
0.701360559463501

>  <NBS>  (11) 
0.901360559463501

>  <source_stage>  (11) 
scored

>  <source_iter>  (11) 
2

>  <source_parent_mol>  (11) 
0

>  <source_scenario>  (11) 
0 0

>  <source_rank_in_scored_call>  (11) 
10

>  <source_current_task>  (11) 
close_aromatic_ring

>  <rotatable_bond_torsions>  (11) 
1,0,2,3

>  <scenario>  (11) 
0

$$$$

     RDKit          3D

  5  4  0  0  0  0  0  0  0  0999 V2000
  -27.8200   -7.7890  -31.6880 C   0  0  0  0  0  0  0  0  0  0  0  0
  -27.6960   -7.1490  -32.8860 N   0  0  0  0  0  0  0  0  0  0  0  0
  -27.1770   -9.0220  -31.5070 N   0  0  0  0  0  0  0  0  0  0  0  0
  -28.0520  -10.0670  -31.3280 C   0  0  0  0  0  0  0  0  0  0  0  0
  -29.4170  -10.0220  -31.3010 C   0  0  0  0  0  0  0  0  0  0  0  0
  1  2  2  0
  1  3  1  0
  3  4  1  0
  4  5  2  0
M  END
>  <name>  (12) 
Car Nac Nd0 Car Car

>  <indices>  (12) 
[0, 1, 2]

>  <dummy>  (12) 
1

>  <tasks>  (12) 
probe_placing close_aromatic_ring

>  <current_task>  (12) 
close_aromatic_ring

>  <prot_clashes>  (12) 
4

>  <NBS phar>  (12) 
0.2

>  <NBS_non-phar>  (12) 
0.682442569732666

>  <NBS>  (12) 
0.8824425697326661

>  <source_stage>  (12) 
scored

>  <source_iter>  (12) 
2

>  <source_parent_mol>  (12) 
0

>  <source_scenario>  (12) 
0 0

>  <source_rank_in_scored_call>  (12) 
11

>  <source_current_task>  (12) 
close_aromatic_ring

>  <rotatable_bond_torsions>  (12) 
1,0,2,3

>  <scenario>  (12) 
0

$$$$

     RDKit          3D

  5  4  0  0  0  0  0  0  0  0999 V2000
  -27.9440   -7.6980  -31.7490 C   0  0  0  0  0  0  0  0  0  0  0  0
  -27.6860   -6.9950  -32.8890 N   0  0  0  0  0  0  0  0  0  0  0  0
  -27.7740   -9.0900  -31.7580 N   0  0  0  0  0  0  0  0  0  0  0  0
  -28.9490   -9.7800  -31.5790 C   0  0  0  0  0  0  0  0  0  0  0  0
  -28.8290  -11.2220  -31.7330 C   0  0  0  0  0  0  0  0  0  0  0  0
  1  2  2  0
  1  3  1  0
  3  4  1  0
  4  5  2  0
M  END
>  <name>  (13) 
Car Nac Nd0 Car Car

>  <indices>  (13) 
[0, 1, 2]

>  <dummy>  (13) 
1

>  <tasks>  (13) 
probe_placing close_aromatic_ring

>  <current_task>  (13) 
close_aromatic_ring

>  <prot_clashes>  (13) 
2

>  <NBS phar>  (13) 
0.1

>  <NBS_non-phar>  (13) 
0.7489633083343505

>  <NBS>  (13) 
0.8489633083343505

>  <source_stage>  (13) 
scored

>  <source_iter>  (13) 
2

>  <source_parent_mol>  (13) 
0

>  <source_scenario>  (13) 
0 0

>  <source_rank_in_scored_call>  (13) 
12

>  <source_current_task>  (13) 
close_aromatic_ring

>  <rotatable_bond_torsions>  (13) 
1,0,2,3

>  <scenario>  (13) 
0

$$$$

     RDKit          3D

  5  4  0  0  0  0  0  0  0  0999 V2000
  -27.7220   -7.7540  -31.6210 C   0  0  0  0  0  0  0  0  0  0  0  0
  -27.6680   -7.2530  -32.8880 N   0  0  0  0  0  0  0  0  0  0  0  0
  -27.3020   -9.0720  -31.3950 N   0  0  0  0  0  0  0  0  0  0  0  0
  -28.3190   -9.9000  -30.9820 C   0  0  0  0  0  0  0  0  0  0  0  0
  -28.7500  -11.0020  -31.8090 C   0  0  0  0  0  0  0  0  0  0  0  0
  1  2  2  0
  1  3  1  0
  3  4  1  0
  4  5  2  0
M  END
>  <name>  (14) 
Car Nac Nd0 Car Car

>  <indices>  (14) 
[0, 1, 2]

>  <dummy>  (14) 
1

>  <tasks>  (14) 
probe_placing close_aromatic_ring

>  <current_task>  (14) 
close_aromatic_ring

>  <prot_clashes>  (14) 
2

>  <NBS phar>  (14) 
0.2

>  <NBS_non-phar>  (14) 
0.6394278049468994

>  <NBS>  (14) 
0.8394278049468995

>  <source_stage>  (14) 
scored

>  <source_iter>  (14) 
2

>  <source_parent_mol>  (14) 
0

>  <source_scenario>  (14) 
0 0

>  <source_rank_in_scored_call>  (14) 
13

>  <source_current_task>  (14) 
close_aromatic_ring

>  <rotatable_bond_torsions>  (14) 
1,0,2,3

>  <scenario>  (14) 
0

$$$$

     RDKit          3D

  5  4  0  0  0  0  0  0  0  0999 V2000
  -27.8410   -7.7980  -31.6800 C   0  0  0  0  0  0  0  0  0  0  0  0
  -27.6550   -7.1900  -32.8860 N   0  0  0  0  0  0  0  0  0  0  0  0
  -27.2230   -9.0330  -31.4410 N   0  0  0  0  0  0  0  0  0  0  0  0
  -28.1190  -10.0620  -31.2750 C   0  0  0  0  0  0  0  0  0  0  0  0
  -29.5610   -9.9150  -31.3170 C   0  0  0  0  0  0  0  0  0  0  0  0
  1  2  2  0
  1  3  1  0
  3  4  1  0
  4  5  1  0
M  END
>  <name>  (15) 
Car Nac Nd0 Car Car

>  <indices>  (15) 
[0, 1, 2]

>  <dummy>  (15) 
1

>  <tasks>  (15) 
probe_placing close_aromatic_ring

>  <current_task>  (15) 
close_aromatic_ring

>  <prot_clashes>  (15) 
5

>  <NBS phar>  (15) 
0.2

>  <NBS_non-phar>  (15) 
0.5378242015838623

>  <NBS>  (15) 
0.7378242015838623

>  <source_stage>  (15) 
scored

>  <source_iter>  (15) 
2

>  <source_parent_mol>  (15) 
0

>  <source_scenario>  (15) 
0 0

>  <source_rank_in_scored_call>  (15) 
14

>  <source_current_task>  (15) 
close_aromatic_ring

>  <rotatable_bond_torsions>  (15) 
1,0,2,3

>  <scenario>  (15) 
0

$$$$

     RDKit          3D

  5  4  0  0  0  0  0  0  0  0999 V2000
  -27.8640   -7.4760  -31.1990 C   0  0  0  0  0  0  0  0  0  0  0  0
  -27.5380   -6.7190  -32.2850 N   0  0  0  0  0  0  0  0  0  0  0  0
  -27.6840   -8.8650  -31.2620 N   0  0  0  0  0  0  0  0  0  0  0  0
  -28.0975   -9.2947  -30.0006 C   0  0  0  0  0  0  0  0  0  0  0  0
  -28.3802  -10.8247  -30.1335 C   0  0  0  0  0  0  0  0  0  0  0  0
  1  2  2  0
  1  3  1  0
  3  4  1  0
  4  5  1  0
M  END
>  <name>  (1) 
Car Nac Nd0 Car Car

>  <indices>  (1) 
[0, 1, 2]

>  <dummy>  (1) 
1

>  <tasks>  (1) 
probe_placing close_aromatic_ring

>  <current_task>  (1) 
close_aromatic_ring

>  <prot_clashes>  (1) 
0

>  <NBS phar>  (1) 
0.2

>  <NBS_non-phar>  (1) 
0.9181889533996582

>  <NBS>  (1) 
1.1181889533996583

>  <source_stage>  (1) 
scored

>  <source_iter>  (1) 
2

>  <source_parent_mol>  (1) 
1

>  <source_scenario>  (1) 
0 1

>  <source_rank_in_scored_call>  (1) 
0

>  <source_current_task>  (1) 
close_aromatic_ring

>  <rotatable_bond_torsions>  (1) 
1,0,2,3

>  <scenario>  (1) 
0

$$$$

     RDKit          3D

  5  4  0  0  0  0  0  0  0  0999 V2000
  -27.8640   -7.4760  -31.1990 C   0  0  0  0  0  0  0  0  0  0  0  0
  -27.5380   -6.7190  -32.2850 N   0  0  0  0  0  0  0  0  0  0  0  0
  -27.6840   -8.8650  -31.2620 N   0  0  0  0  0  0  0  0  0  0  0  0
  -28.0975   -9.2947  -30.0006 C   0  0  0  0  0  0  0  0  0  0  0  0
  -28.1036  -10.8191  -29.9560 C   0  0  0  0  0  0  0  0  0  0  0  0
  1  2  2  0
  1  3  1  0
  3  4  1  0
  4  5  2  0
M  END
>  <name>  (2) 
Car Nac Nd0 Car Car

>  <indices>  (2) 
[0, 1, 2]

>  <dummy>  (2) 
1

>  <tasks>  (2) 
probe_placing close_aromatic_ring

>  <current_task>  (2) 
close_aromatic_ring

>  <prot_clashes>  (2) 
0

>  <NBS phar>  (2) 
0.2

>  <NBS_non-phar>  (2) 
0.8892837524414062

>  <NBS>  (2) 
1.0892837524414063

>  <source_stage>  (2) 
scored

>  <source_iter>  (2) 
2

>  <source_parent_mol>  (2) 
1

>  <source_scenario>  (2) 
0 1

>  <source_rank_in_scored_call>  (2) 
1

>  <source_current_task>  (2) 
close_aromatic_ring

>  <rotatable_bond_torsions>  (2) 
1,0,2,3

>  <scenario>  (2) 
0

$$$$

     RDKit          3D

  5  4  0  0  0  0  0  0  0  0999 V2000
  -27.8640   -7.4760  -31.1990 C   0  0  0  0  0  0  0  0  0  0  0  0
  -27.5380   -6.7190  -32.2850 N   0  0  0  0  0  0  0  0  0  0  0  0
  -27.6840   -8.8650  -31.2620 N   0  0  0  0  0  0  0  0  0  0  0  0
  -28.0975   -9.2947  -30.0006 C   0  0  0  0  0  0  0  0  0  0  0  0
  -28.5014   -8.2952  -29.1740 C   0  0  0  0  0  0  0  0  0  0  0  0
  1  2  2  0
  1  3  1  0
  3  4  1  0
  4  5  2  0
M  END
>  <name>  (3) 
Car Nac Nd0 Car Car

>  <indices>  (3) 
[0, 1, 2]

>  <dummy>  (3) 
1

>  <tasks>  (3) 
probe_placing close_aromatic_ring

>  <current_task>  (3) 
close_aromatic_ring

>  <prot_clashes>  (3) 
0

>  <NBS phar>  (3) 
0.2

>  <NBS_non-phar>  (3) 
0.8807449340820312

>  <NBS>  (3) 
1.0807449340820312

>  <source_stage>  (3) 
scored

>  <source_iter>  (3) 
2

>  <source_parent_mol>  (3) 
1

>  <source_scenario>  (3) 
0 1

>  <source_rank_in_scored_call>  (3) 
2

>  <source_current_task>  (3) 
close_aromatic_ring

>  <rotatable_bond_torsions>  (3) 
1,0,2,3

>  <scenario>  (3) 
0

$$$$

     RDKit          3D

  5  4  0  0  0  0  0  0  0  0999 V2000
  -27.8640   -7.4760  -31.1990 C   0  0  0  0  0  0  0  0  0  0  0  0
  -27.5380   -6.7190  -32.2850 N   0  0  0  0  0  0  0  0  0  0  0  0
  -27.6840   -8.8650  -31.2620 N   0  0  0  0  0  0  0  0  0  0  0  0
  -28.0975   -9.2947  -30.0006 C   0  0  0  0  0  0  0  0  0  0  0  0
  -28.5730   -8.5887  -28.8689 C   0  0  0  0  0  0  0  0  0  0  0  0
  1  2  2  0
  1  3  1  0
  3  4  1  0
  4  5  1  0
M  END
>  <name>  (4) 
Car Nac Nd0 Car Car

>  <indices>  (4) 
[0, 1, 2]

>  <dummy>  (4) 
1

>  <tasks>  (4) 
probe_placing close_aromatic_ring

>  <current_task>  (4) 
close_aromatic_ring

>  <prot_clashes>  (4) 
1

>  <NBS phar>  (4) 
0.2

>  <NBS_non-phar>  (4) 
0.8459325790405273

>  <NBS>  (4) 
1.0459325790405274

>  <source_stage>  (4) 
scored

>  <source_iter>  (4) 
2

>  <source_parent_mol>  (4) 
1

>  <source_scenario>  (4) 
0 1

>  <source_rank_in_scored_call>  (4) 
3

>  <source_current_task>  (4) 
close_aromatic_ring

>  <rotatable_bond_torsions>  (4) 
1,0,2,3

>  <scenario>  (4) 
0

$$$$

     RDKit          3D

  5  4  0  0  0  0  0  0  0  0999 V2000
  -27.8640   -7.4760  -31.1990 C   0  0  0  0  0  0  0  0  0  0  0  0
  -27.5380   -6.7190  -32.2850 N   0  0  0  0  0  0  0  0  0  0  0  0
  -27.6840   -8.8650  -31.2620 N   0  0  0  0  0  0  0  0  0  0  0  0
  -28.0975   -9.2947  -30.0006 C   0  0  0  0  0  0  0  0  0  0  0  0
  -29.2272  -10.2496  -29.9098 C   0  0  0  0  0  0  0  0  0  0  0  0
  1  2  2  0
  1  3  1  0
  3  4  1  0
  4  5  2  0
M  END
>  <name>  (5) 
Car Nac Nd0 Car Car

>  <indices>  (5) 
[0, 1, 2]

>  <dummy>  (5) 
1

>  <tasks>  (5) 
probe_placing close_aromatic_ring

>  <current_task>  (5) 
close_aromatic_ring

>  <prot_clashes>  (5) 
0

>  <NBS phar>  (5) 
0.2

>  <NBS_non-phar>  (5) 
0.8110699653625488

>  <NBS>  (5) 
1.0110699653625488

>  <source_stage>  (5) 
scored

>  <source_iter>  (5) 
2

>  <source_parent_mol>  (5) 
1

>  <source_scenario>  (5) 
0 1

>  <source_rank_in_scored_call>  (5) 
4

>  <source_current_task>  (5) 
close_aromatic_ring

>  <rotatable_bond_torsions>  (5) 
1,0,2,3

>  <scenario>  (5) 
0

$$$$

     RDKit          3D

  5  4  0  0  0  0  0  0  0  0999 V2000
  -27.9850   -7.7460  -31.7510 C   0  0  0  0  0  0  0  0  0  0  0  0
  -27.6840   -7.0610  -32.8910 N   0  0  0  0  0  0  0  0  0  0  0  0
  -28.0260   -9.1470  -31.7930 N   0  0  0  0  0  0  0  0  0  0  0  0
  -28.3430   -9.4930  -30.4790 C   0  0  0  0  0  0  0  0  0  0  0  0
  -29.5840  -10.2620  -30.2250 C   0  0  0  0  0  0  0  0  0  0  0  0
  1  2  2  0
  1  3  1  0
  3  4  1  0
  4  5  2  0
M  END
>  <name>  (6) 
Car Nac Nd0 Car Car

>  <indices>  (6) 
[0, 1, 2]

>  <dummy>  (6) 
1

>  <tasks>  (6) 
probe_placing close_aromatic_ring

>  <current_task>  (6) 
close_aromatic_ring

>  <prot_clashes>  (6) 
3

>  <NBS phar>  (6) 
0.22000000000000003

>  <NBS_non-phar>  (6) 
0.7602019786834717

>  <NBS>  (6) 
0.9802019786834717

>  <source_stage>  (6) 
scored

>  <source_iter>  (6) 
2

>  <source_parent_mol>  (6) 
1

>  <source_scenario>  (6) 
0 1

>  <source_rank_in_scored_call>  (6) 
5

>  <source_current_task>  (6) 
close_aromatic_ring

>  <rotatable_bond_torsions>  (6) 
1,0,2,3

>  <scenario>  (6) 
0

$$$$

     RDKit          3D

  5  4  0  0  0  0  0  0  0  0999 V2000
  -28.1530   -7.6490  -31.7760 C   0  0  0  0  0  0  0  0  0  0  0  0
  -27.6950   -7.0390  -32.9070 N   0  0  0  0  0  0  0  0  0  0  0  0
  -27.5750   -8.8640  -31.3800 N   0  0  0  0  0  0  0  0  0  0  0  0
  -28.2650   -9.1750  -30.2080 C   0  0  0  0  0  0  0  0  0  0  0  0
  -29.1990   -8.2560  -29.8490 C   0  0  0  0  0  0  0  0  0  0  0  0
  1  2  2  0
  1  3  1  0
  3  4  1  0
  4  5  2  0
M  END
>  <name>  (7) 
Car Nac Nd0 Car Car

>  <indices>  (7) 
[0, 1, 2]

>  <dummy>  (7) 
1

>  <tasks>  (7) 
probe_placing close_aromatic_ring

>  <current_task>  (7) 
close_aromatic_ring

>  <prot_clashes>  (7) 
3

>  <NBS phar>  (7) 
0.2

>  <NBS_non-phar>  (7) 
0.7692207813262939

>  <NBS>  (7) 
0.9692207813262939

>  <source_stage>  (7) 
scored

>  <source_iter>  (7) 
2

>  <source_parent_mol>  (7) 
1

>  <source_scenario>  (7) 
0 1

>  <source_rank_in_scored_call>  (7) 
6

>  <source_current_task>  (7) 
close_aromatic_ring

>  <rotatable_bond_torsions>  (7) 
1,0,2,3

>  <scenario>  (7) 
0

$$$$

     RDKit          3D

  5  4  0  0  0  0  0  0  0  0999 V2000
  -27.9070   -7.6290  -31.8240 C   0  0  0  0  0  0  0  0  0  0  0  0
  -27.3430   -6.9750  -32.8780 N   0  0  0  0  0  0  0  0  0  0  0  0
  -27.5940   -8.9810  -31.6180 N   0  0  0  0  0  0  0  0  0  0  0  0
  -28.3230   -9.3030  -30.4730 C   0  0  0  0  0  0  0  0  0  0  0  0
  -29.1710   -8.5310  -29.6420 C   0  0  0  0  0  0  0  0  0  0  0  0
  1  2  2  0
  1  3  1  0
  3  4  1  0
  4  5  1  0
M  END
>  <name>  (8) 
Car Nac Nd0 Car Car

>  <indices>  (8) 
[0, 1, 2]

>  <dummy>  (8) 
1

>  <tasks>  (8) 
probe_placing close_aromatic_ring

>  <current_task>  (8) 
close_aromatic_ring

>  <prot_clashes>  (8) 
3

>  <NBS phar>  (8) 
0.2

>  <NBS_non-phar>  (8) 
0.715918779373169

>  <NBS>  (8) 
0.9159187793731689

>  <source_stage>  (8) 
scored

>  <source_iter>  (8) 
2

>  <source_parent_mol>  (8) 
1

>  <source_scenario>  (8) 
0 1

>  <source_rank_in_scored_call>  (8) 
7

>  <source_current_task>  (8) 
close_aromatic_ring

>  <rotatable_bond_torsions>  (8) 
1,0,2,3

>  <scenario>  (8) 
0

$$$$

     RDKit          3D

  5  4  0  0  0  0  0  0  0  0999 V2000
  -28.1420   -7.6550  -31.8410 C   0  0  0  0  0  0  0  0  0  0  0  0
  -27.5720   -6.9860  -32.8840 N   0  0  0  0  0  0  0  0  0  0  0  0
  -28.4220   -9.0210  -31.9830 N   0  0  0  0  0  0  0  0  0  0  0  0
  -28.9720   -9.3610  -30.7470 C   0  0  0  0  0  0  0  0  0  0  0  0
  -29.4730  -10.8010  -30.7880 C   0  0  0  0  0  0  0  0  0  0  0  0
  1  2  2  0
  1  3  1  0
  3  4  1  0
  4  5  2  0
M  END
>  <name>  (9) 
Car Nac Nd0 Car Car

>  <indices>  (9) 
[0, 1, 2]

>  <dummy>  (9) 
1

>  <tasks>  (9) 
probe_placing close_aromatic_ring

>  <current_task>  (9) 
close_aromatic_ring

>  <prot_clashes>  (9) 
1

>  <NBS phar>  (9) 
0.2

>  <NBS_non-phar>  (9) 
0.6879849433898926

>  <NBS>  (9) 
0.8879849433898925

>  <source_stage>  (9) 
scored

>  <source_iter>  (9) 
2

>  <source_parent_mol>  (9) 
1

>  <source_scenario>  (9) 
0 1

>  <source_rank_in_scored_call>  (9) 
8

>  <source_current_task>  (9) 
close_aromatic_ring

>  <rotatable_bond_torsions>  (9) 
1,0,2,3

>  <scenario>  (9) 
0

$$$$

     RDKit          3D

  5  4  0  0  0  0  0  0  0  0999 V2000
  -28.3150   -7.8110  -32.1990 C   0  0  0  0  0  0  0  0  0  0  0  0
  -27.4720   -7.0040  -32.9050 N   0  0  0  0  0  0  0  0  0  0  0  0
  -28.4410   -9.1550  -32.5770 N   0  0  0  0  0  0  0  0  0  0  0  0
  -29.3520   -9.6600  -31.6480 C   0  0  0  0  0  0  0  0  0  0  0  0
  -28.8980  -10.8810  -30.9050 C   0  0  0  0  0  0  0  0  0  0  0  0
  1  2  2  0
  1  3  1  0
  3  4  1  0
  4  5  2  0
M  END
>  <name>  (10) 
Car Nac Nd0 Car Car

>  <indices>  (10) 
[0, 1, 2]

>  <dummy>  (10) 
1

>  <tasks>  (10) 
probe_placing close_aromatic_ring

>  <current_task>  (10) 
close_aromatic_ring

>  <prot_clashes>  (10) 
3

>  <NBS phar>  (10) 
0.1

>  <NBS_non-phar>  (10) 
0.5627676963806152

>  <NBS>  (10) 
0.6627676963806152

>  <source_stage>  (10) 
scored

>  <source_iter>  (10) 
2

>  <source_parent_mol>  (10) 
1

>  <source_scenario>  (10) 
0 1

>  <source_rank_in_scored_call>  (10) 
9

>  <source_current_task>  (10) 
close_aromatic_ring

>  <rotatable_bond_torsions>  (10) 
1,0,2,3

>  <scenario>  (10) 
0

$$$$

     RDKit          3D

  5  4  0  0  0  0  0  0  0  0999 V2000
  -28.7390   -8.3000  -32.1520 C   0  0  0  0  0  0  0  0  0  0  0  0
  -27.9800   -7.4090  -32.8520 N   0  0  0  0  0  0  0  0  0  0  0  0
  -28.7600   -9.6410  -32.5610 N   0  0  0  0  0  0  0  0  0  0  0  0
  -29.6060  -10.2420  -31.6290 C   0  0  0  0  0  0  0  0  0  0  0  0
  -28.9900  -11.3070  -30.8750 C   0  0  0  0  0  0  0  0  0  0  0  0
  1  2  2  0
  1  3  1  0
  3  4  1  0
  4  5  1  0
M  END
>  <name>  (11) 
Car Nac Nd0 Car Car

>  <indices>  (11) 
[0, 1, 2]

>  <dummy>  (11) 
1

>  <tasks>  (11) 
probe_placing close_aromatic_ring

>  <current_task>  (11) 
close_aromatic_ring

>  <prot_clashes>  (11) 
3

>  <NBS phar>  (11) 
0.1

>  <NBS_non-phar>  (11) 
0.4437557697296143

>  <NBS>  (11) 
0.5437557697296143

>  <source_stage>  (11) 
scored

>  <source_iter>  (11) 
2

>  <source_parent_mol>  (11) 
1

>  <source_scenario>  (11) 
0 1

>  <source_rank_in_scored_call>  (11) 
10

>  <source_current_task>  (11) 
close_aromatic_ring

>  <rotatable_bond_torsions>  (11) 
1,0,2,3

>  <scenario>  (11) 
0

$$$$

     RDKit          3D

  5  4  0  0  0  0  0  0  0  0999 V2000
  -28.1450   -7.8380  -31.9640 C   0  0  0  0  0  0  0  0  0  0  0  0
  -27.6150   -6.9960  -32.8960 N   0  0  0  0  0  0  0  0  0  0  0  0
  -28.4120   -9.1660  -32.3230 N   0  0  0  0  0  0  0  0  0  0  0  0
  -28.9200   -9.7170  -31.1460 C   0  0  0  0  0  0  0  0  0  0  0  0
  -29.6710  -11.0200  -31.5640 C   0  0  0  0  0  0  0  0  0  0  0  0
  1  2  2  0
  1  3  1  0
  3  4  1  0
  4  5  1  0
M  END
>  <name>  (12) 
Car Nac Nd0 Car Car

>  <indices>  (12) 
[0, 1, 2]

>  <dummy>  (12) 
1

>  <tasks>  (12) 
probe_placing close_aromatic_ring

>  <current_task>  (12) 
close_aromatic_ring

>  <prot_clashes>  (12) 
1

>  <NBS phar>  (12) 
0.1

>  <NBS_non-phar>  (12) 
0.3887255907058716

>  <NBS>  (12) 
0.4887255907058716

>  <source_stage>  (12) 
scored

>  <source_iter>  (12) 
2

>  <source_parent_mol>  (12) 
1

>  <source_scenario>  (12) 
0 1

>  <source_rank_in_scored_call>  (12) 
11

>  <source_current_task>  (12) 
close_aromatic_ring

>  <rotatable_bond_torsions>  (12) 
1,0,2,3

>  <scenario>  (12) 
0

$$$$

     RDKit          3D

  6  6  0  0  0  0  0  0  0  0999 V2000
  -27.8454   -7.4161  -31.2694 C   0  0  0  0  0  0  0  0  0  0  0  0
  -27.5380   -6.7190  -32.2850 N   0  0  0  0  0  0  0  0  0  0  0  0
  -27.7110   -8.8447  -31.1986 N   0  0  0  0  0  0  0  0  0  0  0  0
  -28.1042   -9.3672  -29.9500 C   0  0  0  0  0  0  0  0  0  0  0  0
  -28.4813   -8.3486  -29.2230 C   0  0  0  0  0  0  0  0  0  0  0  0
  -28.3754   -7.0578  -29.9151 C   0  0  0  0  0  0  0  0  0  0  0  0
  1  2  2  0
  1  3  1  0
  3  4  1  0
  4  5  2  0
  5  6  1  0
  1  6  1  0
M  END
>  <name>  (1) 
Car Nac Nd0 Car Car Car

>  <indices>  (1) 
[0, 1, 2]

>  <dummy>  (1) 
1

>  <tasks>  (1) 
probe_placing close_aromatic_ring close_aromatic_ring

>  <current_task>  (1) 
fix_Car

>  <prot_clashes>  (1) 
1

>  <NBS phar>  (1) 
0.2

>  <NBS_non-phar>  (1) 
0.7459243933359782

>  <NBS>  (1) 
0.9459243933359782

>  <source_stage>  (1) 
scored

>  <source_iter>  (1) 
3

>  <source_parent_mol>  (1) 
2

>  <source_scenario>  (1) 
0 1 2

>  <source_rank_in_scored_call>  (1) 
0

>  <source_current_task>  (1) 
close_aromatic_ring

>  <rotatable_bond_torsions>  (1) 
1,0,2,3;0,2,3,4

>  <scenario>  (1) 
0 1

$$$$

     RDKit          3D

  6  6  0  0  0  0  0  0  0  0999 V2000
  -27.8720   -7.6480  -31.7870 C   0  0  0  0  0  0  0  0  0  0  0  0
  -27.6090   -7.0490  -32.8750 N   0  0  0  0  0  0  0  0  0  0  0  0
  -27.2960   -8.9060  -31.3970 N   0  0  0  0  0  0  0  0  0  0  0  0
  -27.7430   -9.3390  -30.1320 C   0  0  0  0  0  0  0  0  0  0  0  0
  -28.5710   -8.4260  -29.6970 C   0  0  0  0  0  0  0  0  0  0  0  0
  -28.7530   -7.3040  -30.6270 C   0  0  0  0  0  0  0  0  0  0  0  0
  1  2  2  0
  1  3  1  0
  1  6  1  0
  3  4  1  0
  4  5  2  0
  5  6  1  0
M  END
>  <name>  (2) 
Car Nac Nd0 Car Car Car

>  <indices>  (2) 
[0, 1, 2]

>  <dummy>  (2) 
1

>  <tasks>  (2) 
probe_placing close_aromatic_ring close_aromatic_ring

>  <current_task>  (2) 
fix_Car

>  <prot_clashes>  (2) 
4

>  <NBS phar>  (2) 
0.2

>  <NBS_non-phar>  (2) 
0.7375229994455973

>  <NBS>  (2) 
0.9375229994455974

>  <source_stage>  (2) 
scored

>  <source_iter>  (2) 
3

>  <source_parent_mol>  (2) 
2

>  <source_scenario>  (2) 
0 1 2

>  <source_rank_in_scored_call>  (2) 
1

>  <source_current_task>  (2) 
close_aromatic_ring

>  <rotatable_bond_torsions>  (2) 
1,0,2,3;0,2,3,4

>  <scenario>  (2) 
0 1

$$$$

     RDKit          3D

  7  7  0  0  0  0  0  0  0  0999 V2000
  -27.8454   -7.4161  -31.2694 C   0  0  0  0  0  0  0  0  0  0  0  0
  -27.5380   -6.7190  -32.2850 N   0  0  0  0  0  0  0  0  0  0  0  0
  -27.7110   -8.8447  -31.1986 N   0  0  0  0  0  0  0  0  0  0  0  0
  -28.1042   -9.3672  -29.9500 C   0  0  0  0  0  0  0  0  0  0  0  0
  -28.4813   -8.3486  -29.2230 C   0  0  0  0  0  0  0  0  0  0  0  0
  -28.3754   -7.0578  -29.9151 C   0  0  0  0  0  0  0  0  0  0  0  0
  -28.7474   -5.8740  -29.2530 C   0  0  0  0  0  0  0  0  0  0  0  0
  1  2  2  0
  1  3  1  0
  3  4  1  0
  4  5  2  0
  5  6  1  0
  1  6  1  0
  6  7  1  0
M  END
>  <name>  (1) 
Car Nac Nd0 Car Car Car Car

>  <indices>  (1) 
[0, 1, 2]

>  <tasks>  (1) 
probe_placing close_aromatic_ring close_aromatic_ring close_aromatic_ring ring_built

>  <prot_clashes>  (1) 
0

>  <NBS phar>  (1) 
0.2

>  <NBS_non-phar>  (1) 
0.7730259895324707

>  <NBS>  (1) 
0.9730259895324707

>  <source_stage>  (1) 
scored

>  <source_iter>  (1) 
4

>  <source_parent_mol>  (1) 
0

>  <source_scenario>  (1) 
0 1 2 0

>  <source_rank_in_scored_call>  (1) 
0

>  <source_current_task>  (1) 
close_aromatic_ring

>  <scenario>  (1) 
0 1 2

>  <initiate_ring_bisect>  (1) 


>  <current_task>  (1) 
close_aromatic_ring

$$$$

     RDKit          3D

  7  7  0  0  0  0  0  0  0  0999 V2000
  -27.8454   -7.4161  -31.2694 C   0  0  0  0  0  0  0  0  0  0  0  0
  -27.5380   -6.7190  -32.2850 N   0  0  0  0  0  0  0  0  0  0  0  0
  -27.7110   -8.8447  -31.1986 N   0  0  0  0  0  0  0  0  0  0  0  0
  -28.1042   -9.3672  -29.9500 C   0  0  0  0  0  0  0  0  0  0  0  0
  -28.4813   -8.3486  -29.2230 C   0  0  0  0  0  0  0  0  0  0  0  0
  -28.3754   -7.0578  -29.9151 C   0  0  0  0  0  0  0  0  0  0  0  0
  -28.6971   -5.7810  -29.4208 C   0  0  0  0  0  0  0  0  0  0  0  0
  1  2  2  0
  1  3  1  0
  3  4  1  0
  4  5  2  0
  5  6  1  0
  1  6  1  0
  6  7  1  0
M  END
>  <name>  (2) 
Car Nac Nd0 Car Car Car Car

>  <indices>  (2) 
[0, 1, 2]

>  <tasks>  (2) 
probe_placing close_aromatic_ring close_aromatic_ring close_aromatic_ring ring_built

>  <prot_clashes>  (2) 
0

>  <NBS phar>  (2) 
0.2

>  <NBS_non-phar>  (2) 
0.7559334891183036

>  <NBS>  (2) 
0.9559334891183036

>  <source_stage>  (2) 
scored

>  <source_iter>  (2) 
4

>  <source_parent_mol>  (2) 
0

>  <source_scenario>  (2) 
0 1 2 0

>  <source_rank_in_scored_call>  (2) 
1

>  <source_current_task>  (2) 
close_aromatic_ring

>  <scenario>  (2) 
0 1 2

>  <current_task>  (2) 
close_aromatic_ring

$$$$

     RDKit          3D

  7  7  0  0  0  0  0  0  0  0999 V2000
  -27.8454   -7.4161  -31.2694 C   0  0  0  0  0  0  0  0  0  0  0  0
  -27.5380   -6.7190  -32.2850 N   0  0  0  0  0  0  0  0  0  0  0  0
  -27.7110   -8.8447  -31.1986 N   0  0  0  0  0  0  0  0  0  0  0  0
  -28.1042   -9.3672  -29.9500 C   0  0  0  0  0  0  0  0  0  0  0  0
  -28.4813   -8.3486  -29.2230 C   0  0  0  0  0  0  0  0  0  0  0  0
  -28.3754   -7.0578  -29.9151 C   0  0  0  0  0  0  0  0  0  0  0  0
  -28.6404   -5.7133  -29.5985 C   0  0  0  0  0  0  0  0  0  0  0  0
  1  2  2  0
  1  3  1  0
  3  4  1  0
  4  5  2  0
  5  6  1  0
  1  6  1  0
  6  7  1  0
M  END
>  <name>  (3) 
Car Nac Nd0 Car Car Car Car

>  <indices>  (3) 
[0, 1, 2]

>  <tasks>  (3) 
probe_placing close_aromatic_ring close_aromatic_ring close_aromatic_ring ring_built

>  <prot_clashes>  (3) 
0

>  <NBS phar>  (3) 
0.2

>  <NBS_non-phar>  (3) 
0.7372981480189732

>  <NBS>  (3) 
0.9372981480189733

>  <source_stage>  (3) 
scored

>  <source_iter>  (3) 
4

>  <source_parent_mol>  (3) 
0

>  <source_scenario>  (3) 
0 1 2 0

>  <source_rank_in_scored_call>  (3) 
2

>  <source_current_task>  (3) 
close_aromatic_ring

>  <scenario>  (3) 
0 1 2

>  <initiate_ring_bisect>  (3) 


>  <current_task>  (3) 
close_aromatic_ring

$$$$

     RDKit          3D

  7  7  0  0  0  0  0  0  0  0999 V2000
  -27.8210   -7.5410  -31.7380 C   0  0  0  0  0  0  0  0  0  0  0  0
  -27.6760   -7.0440  -32.8980 N   0  0  0  0  0  0  0  0  0  0  0  0
  -27.3730   -8.8520  -31.3580 N   0  0  0  0  0  0  0  0  0  0  0  0
  -27.6420   -9.1480  -30.0070 C   0  0  0  0  0  0  0  0  0  0  0  0
  -28.2370   -8.0980  -29.5070 C   0  0  0  0  0  0  0  0  0  0  0  0
  -28.4190   -7.0070  -30.4730 C   0  0  0  0  0  0  0  0  0  0  0  0
  -29.0460   -5.8130  -30.0740 C   0  0  0  0  0  0  0  0  0  0  0  0
  1  2  2  0
  1  3  1  0
  1  6  1  0
  3  4  1  0
  4  5  2  0
  5  6  1  0
  6  7  1  0
M  END
>  <name>  (4) 
Car Nac Nd0 Car Car Car Car

>  <indices>  (4) 
[0, 1, 2]

>  <tasks>  (4) 
probe_placing close_aromatic_ring close_aromatic_ring close_aromatic_ring ring_built

>  <prot_clashes>  (4) 
5

>  <NBS phar>  (4) 
0.2

>  <NBS_non-phar>  (4) 
0.6380421093532017

>  <NBS>  (4) 
0.8380421093532018

>  <source_stage>  (4) 
scored

>  <source_iter>  (4) 
4

>  <source_parent_mol>  (4) 
0

>  <source_scenario>  (4) 
0 1 2 0

>  <source_rank_in_scored_call>  (4) 
3

>  <source_current_task>  (4) 
close_aromatic_ring

>  <scenario>  (4) 
0 1 2

>  <initiate_ring_bisect>  (4) 


>  <current_task>  (4) 
close_aromatic_ring

$$$$

     RDKit          3D

  7  7  0  0  0  0  0  0  0  0999 V2000
  -28.0130   -7.5600  -31.8540 C   0  0  0  0  0  0  0  0  0  0  0  0
  -27.6890   -6.9860  -32.9400 N   0  0  0  0  0  0  0  0  0  0  0  0
  -27.7080   -8.9280  -31.5410 N   0  0  0  0  0  0  0  0  0  0  0  0
  -28.1640   -9.3070  -30.2620 C   0  0  0  0  0  0  0  0  0  0  0  0
  -28.7430   -8.2560  -29.7460 C   0  0  0  0  0  0  0  0  0  0  0  0
  -28.7270   -7.0810  -30.6280 C   0  0  0  0  0  0  0  0  0  0  0  0
  -29.1920   -5.7560  -30.5590 C   0  0  0  0  0  0  0  0  0  0  0  0
  1  2  2  0
  1  3  1  0
  1  6  1  0
  3  4  1  0
  4  5  2  0
  5  6  1  0
  6  7  1  0
M  END
>  <name>  (5) 
Car Nac Nd0 Car Car Car Car

>  <indices>  (5) 
[0, 1, 2]

>  <tasks>  (5) 
probe_placing close_aromatic_ring close_aromatic_ring close_aromatic_ring ring_built

>  <prot_clashes>  (5) 
5

>  <NBS phar>  (5) 
0.2

>  <NBS_non-phar>  (5) 
0.6117673601422992

>  <NBS>  (5) 
0.8117673601422992

>  <source_stage>  (5) 
scored

>  <source_iter>  (5) 
4

>  <source_parent_mol>  (5) 
0

>  <source_scenario>  (5) 
0 1 2 0

>  <source_rank_in_scored_call>  (5) 
4

>  <source_current_task>  (5) 
close_aromatic_ring

>  <scenario>  (5) 
0 1 2

>  <initiate_ring_bisect>  (5) 


>  <current_task>  (5) 
close_aromatic_ring

$$$$

     RDKit          3D

  7  7  0  0  0  0  0  0  0  0999 V2000
  -27.9650   -7.5370  -31.8070 C   0  0  0  0  0  0  0  0  0  0  0  0
  -27.5990   -6.9840  -32.8900 N   0  0  0  0  0  0  0  0  0  0  0  0
  -27.7090   -8.9110  -31.4750 N   0  0  0  0  0  0  0  0  0  0  0  0
  -28.2040   -9.2640  -30.2030 C   0  0  0  0  0  0  0  0  0  0  0  0
  -28.7620   -8.1900  -29.7100 C   0  0  0  0  0  0  0  0  0  0  0  0
  -28.6900   -7.0250  -30.6010 C   0  0  0  0  0  0  0  0  0  0  0  0
  -29.1880   -5.7290  -30.3750 C   0  0  0  0  0  0  0  0  0  0  0  0
  1  2  2  0
  1  3  1  0
  1  6  1  0
  3  4  1  0
  4  5  2  0
  5  6  1  0
  6  7  1  0
M  END
>  <name>  (6) 
Car Nac Nd0 Car Car Car Car

>  <indices>  (6) 
[0, 1, 2]

>  <tasks>  (6) 
probe_placing close_aromatic_ring close_aromatic_ring close_aromatic_ring ring_built

>  <prot_clashes>  (6) 
5

>  <NBS phar>  (6) 
0.2

>  <NBS_non-phar>  (6) 
0.5763250078473773

>  <NBS>  (6) 
0.7763250078473773

>  <source_stage>  (6) 
scored

>  <source_iter>  (6) 
4

>  <source_parent_mol>  (6) 
0

>  <source_scenario>  (6) 
0 1 2 0

>  <source_rank_in_scored_call>  (6) 
5

>  <source_current_task>  (6) 
close_aromatic_ring

>  <scenario>  (6) 
0 1 2

>  <current_task>  (6) 
close_aromatic_ring

$$$$

     RDKit          3D

  5  4  0  0  0  0  0  0  0  0999 V2000
  -27.3780   -7.8060  -31.6290 C   0  0  0  0  0  0  0  0  0  0  0  0
  -27.6710   -7.3410  -32.8760 N   0  0  0  0  0  0  0  0  0  0  0  0
  -27.3760   -9.1900  -31.4040 N   0  0  0  0  0  0  0  0  0  0  0  0
  -28.2180  -10.1530  -31.9540 C   0  0  0  0  0  0  0  0  0  0  0  0
  -29.1290  -10.7100  -31.1410 C   0  0  0  0  0  0  0  0  0  0  0  0
  1  2  2  0
  1  3  1  0
  3  4  1  0
  4  5  1  0
M  END
>  <name>  (1) 
Car Nac Nd0 Car Car

>  <indices>  (1) 
[0, 1, 2]

>  <dummy>  (1) 
1

>  <tasks>  (1) 
probe_placing close_aromatic_ring

>  <current_task>  (1) 
close_aromatic_ring

>  <prot_clashes>  (1) 
3

>  <NBS phar>  (1) 
0.2

>  <NBS_non-phar>  (1) 
0.7743264198303222

>  <NBS>  (1) 
0.9743264198303223

>  <source_stage>  (1) 
scored

>  <source_iter>  (1) 
2

>  <source_parent_mol>  (1) 
2

>  <source_scenario>  (1) 
0 2

>  <source_rank_in_scored_call>  (1) 
0

>  <source_current_task>  (1) 
close_aromatic_ring

>  <rotatable_bond_torsions>  (1) 
1,0,2,3

>  <scenario>  (1) 
0

$$$$

     RDKit          3D

  5  4  0  0  0  0  0  0  0  0999 V2000
  -27.5730   -7.6020  -31.6140 C   0  0  0  0  0  0  0  0  0  0  0  0
  -27.7350   -7.1890  -32.9030 N   0  0  0  0  0  0  0  0  0  0  0  0
  -27.7090   -8.9660  -31.3170 N   0  0  0  0  0  0  0  0  0  0  0  0
  -28.5910   -9.8860  -31.8790 C   0  0  0  0  0  0  0  0  0  0  0  0
  -28.2400  -11.2270  -31.7890 C   0  0  0  0  0  0  0  0  0  0  0  0
  1  2  2  0
  1  3  1  0
  3  4  1  0
  4  5  1  0
M  END
>  <name>  (2) 
Car Nac Nd0 Car Car

>  <indices>  (2) 
[0, 1, 2]

>  <dummy>  (2) 
1

>  <tasks>  (2) 
probe_placing close_aromatic_ring

>  <current_task>  (2) 
close_aromatic_ring

>  <prot_clashes>  (2) 
3

>  <NBS phar>  (2) 
0.2

>  <NBS_non-phar>  (2) 
0.757138729095459

>  <NBS>  (2) 
0.9571387290954589

>  <source_stage>  (2) 
scored

>  <source_iter>  (2) 
2

>  <source_parent_mol>  (2) 
2

>  <source_scenario>  (2) 
0 2

>  <source_rank_in_scored_call>  (2) 
1

>  <source_current_task>  (2) 
close_aromatic_ring

>  <rotatable_bond_torsions>  (2) 
1,0,2,3

>  <scenario>  (2) 
0

$$$$

     RDKit          3D

  5  4  0  0  0  0  0  0  0  0999 V2000
  -27.5370   -7.7530  -31.6270 C   0  0  0  0  0  0  0  0  0  0  0  0
  -27.9570   -7.3140  -32.8470 N   0  0  0  0  0  0  0  0  0  0  0  0
  -27.5840   -9.1260  -31.3460 N   0  0  0  0  0  0  0  0  0  0  0  0
  -28.5420  -10.0540  -31.7480 C   0  0  0  0  0  0  0  0  0  0  0  0
  -29.3470  -10.6720  -30.8060 C   0  0  0  0  0  0  0  0  0  0  0  0
  1  2  2  0
  1  3  1  0
  3  4  1  0
  4  5  2  0
M  END
>  <name>  (3) 
Car Nac Nd0 Car Car

>  <indices>  (3) 
[0, 1, 2]

>  <dummy>  (3) 
1

>  <tasks>  (3) 
probe_placing close_aromatic_ring

>  <current_task>  (3) 
close_aromatic_ring

>  <prot_clashes>  (3) 
2

>  <NBS phar>  (3) 
0.2

>  <NBS_non-phar>  (3) 
0.7273970603942871

>  <NBS>  (3) 
0.9273970603942872

>  <source_stage>  (3) 
scored

>  <source_iter>  (3) 
2

>  <source_parent_mol>  (3) 
2

>  <source_scenario>  (3) 
0 2

>  <source_rank_in_scored_call>  (3) 
2

>  <source_current_task>  (3) 
close_aromatic_ring

>  <rotatable_bond_torsions>  (3) 
1,0,2,3

>  <scenario>  (3) 
0

$$$$

     RDKit          3D

  5  4  0  0  0  0  0  0  0  0999 V2000
  -27.0300   -7.3480  -31.7370 C   0  0  0  0  0  0  0  0  0  0  0  0
  -27.5580   -6.7570  -32.8460 N   0  0  0  0  0  0  0  0  0  0  0  0
  -27.2380   -8.7200  -31.5350 N   0  0  0  0  0  0  0  0  0  0  0  0
  -28.3720   -9.4720  -31.8350 C   0  0  0  0  0  0  0  0  0  0  0  0
  -28.3760  -10.8110  -31.7240 C   0  0  0  0  0  0  0  0  0  0  0  0
  1  2  2  0
  1  3  1  0
  3  4  1  0
  4  5  2  0
M  END
>  <name>  (4) 
Car Nac Nd0 Car Car

>  <indices>  (4) 
[0, 1, 2]

>  <dummy>  (4) 
1

>  <tasks>  (4) 
probe_placing close_aromatic_ring

>  <current_task>  (4) 
close_aromatic_ring

>  <prot_clashes>  (4) 
4

>  <NBS phar>  (4) 
0.2

>  <NBS_non-phar>  (4) 
0.7133398056030273

>  <NBS>  (4) 
0.9133398056030273

>  <source_stage>  (4) 
scored

>  <source_iter>  (4) 
2

>  <source_parent_mol>  (4) 
2

>  <source_scenario>  (4) 
0 2

>  <source_rank_in_scored_call>  (4) 
3

>  <source_current_task>  (4) 
close_aromatic_ring

>  <rotatable_bond_torsions>  (4) 
1,0,2,3

>  <scenario>  (4) 
0

$$$$

     RDKit          3D

  5  4  0  0  0  0  0  0  0  0999 V2000
  -27.8640   -7.4760  -31.1990 C   0  0  0  0  0  0  0  0  0  0  0  0
  -27.5380   -6.7190  -32.2850 N   0  0  0  0  0  0  0  0  0  0  0  0
  -27.6840   -8.8650  -31.2620 N   0  0  0  0  0  0  0  0  0  0  0  0
  -27.8714   -9.7090  -32.3537 C   0  0  0  0  0  0  0  0  0  0  0  0
  -28.8702  -10.6683  -32.3262 C   0  0  0  0  0  0  0  0  0  0  0  0
  1  2  2  0
  1  3  1  0
  3  4  1  0
  4  5  2  0
M  END
>  <name>  (5) 
Car Nac Nd0 Car Car

>  <indices>  (5) 
[0, 1, 2]

>  <dummy>  (5) 
1

>  <tasks>  (5) 
probe_placing close_aromatic_ring

>  <current_task>  (5) 
close_aromatic_ring

>  <prot_clashes>  (5) 
3

>  <NBS phar>  (5) 
0.2

>  <NBS_non-phar>  (5) 
0.5640222549438476

>  <NBS>  (5) 
0.7640222549438476

>  <source_stage>  (5) 
scored

>  <source_iter>  (5) 
2

>  <source_parent_mol>  (5) 
2

>  <source_scenario>  (5) 
0 2

>  <source_rank_in_scored_call>  (5) 
4

>  <source_current_task>  (5) 
close_aromatic_ring

>  <rotatable_bond_torsions>  (5) 
1,0,2,3

>  <scenario>  (5) 
0

$$$$

     RDKit          3D

  5  4  0  0  0  0  0  0  0  0999 V2000
  -27.8640   -7.4760  -31.1990 C   0  0  0  0  0  0  0  0  0  0  0  0
  -27.5380   -6.7190  -32.2850 N   0  0  0  0  0  0  0  0  0  0  0  0
  -27.6840   -8.8650  -31.2620 N   0  0  0  0  0  0  0  0  0  0  0  0
  -27.8714   -9.7090  -32.3537 C   0  0  0  0  0  0  0  0  0  0  0  0
  -28.9300  -10.5332  -32.3185 C   0  0  0  0  0  0  0  0  0  0  0  0
  1  2  2  0
  1  3  1  0
  3  4  1  0
  4  5  1  0
M  END
>  <name>  (6) 
Car Nac Nd0 Car Car

>  <indices>  (6) 
[0, 1, 2]

>  <dummy>  (6) 
1

>  <tasks>  (6) 
probe_placing close_aromatic_ring

>  <current_task>  (6) 
close_aromatic_ring

>  <prot_clashes>  (6) 
1

>  <NBS phar>  (6) 
0.2

>  <NBS_non-phar>  (6) 
0.5596621036529541

>  <NBS>  (6) 
0.7596621036529541

>  <source_stage>  (6) 
scored

>  <source_iter>  (6) 
2

>  <source_parent_mol>  (6) 
2

>  <source_scenario>  (6) 
0 2

>  <source_rank_in_scored_call>  (6) 
5

>  <source_current_task>  (6) 
close_aromatic_ring

>  <rotatable_bond_torsions>  (6) 
1,0,2,3

>  <scenario>  (6) 
0

$$$$

     RDKit          3D

  5  4  0  0  0  0  0  0  0  0999 V2000
  -27.8640   -7.4760  -31.1990 C   0  0  0  0  0  0  0  0  0  0  0  0
  -27.5380   -6.7190  -32.2850 N   0  0  0  0  0  0  0  0  0  0  0  0
  -27.6840   -8.8650  -31.2620 N   0  0  0  0  0  0  0  0  0  0  0  0
  -27.8714   -9.7090  -32.3537 C   0  0  0  0  0  0  0  0  0  0  0  0
  -27.5161  -11.0041  -32.3100 C   0  0  0  0  0  0  0  0  0  0  0  0
  1  2  2  0
  1  3  1  0
  3  4  1  0
  4  5  2  0
M  END
>  <name>  (7) 
Car Nac Nd0 Car Car

>  <indices>  (7) 
[0, 1, 2]

>  <dummy>  (7) 
1

>  <tasks>  (7) 
probe_placing close_aromatic_ring

>  <current_task>  (7) 
close_aromatic_ring

>  <prot_clashes>  (7) 
3

>  <NBS phar>  (7) 
0.2

>  <NBS_non-phar>  (7) 
0.5512226104736329

>  <NBS>  (7) 
0.7512226104736328

>  <source_stage>  (7) 
scored

>  <source_iter>  (7) 
2

>  <source_parent_mol>  (7) 
2

>  <source_scenario>  (7) 
0 2

>  <source_rank_in_scored_call>  (7) 
6

>  <source_current_task>  (7) 
close_aromatic_ring

>  <rotatable_bond_torsions>  (7) 
1,0,2,3

>  <scenario>  (7) 
0

$$$$

     RDKit          3D

  5  4  0  0  0  0  0  0  0  0999 V2000
  -27.8640   -7.4760  -31.1990 C   0  0  0  0  0  0  0  0  0  0  0  0
  -27.5380   -6.7190  -32.2850 N   0  0  0  0  0  0  0  0  0  0  0  0
  -27.6840   -8.8650  -31.2620 N   0  0  0  0  0  0  0  0  0  0  0  0
  -27.8714   -9.7090  -32.3537 C   0  0  0  0  0  0  0  0  0  0  0  0
  -27.1978  -10.9241  -32.3295 C   0  0  0  0  0  0  0  0  0  0  0  0
  1  2  2  0
  1  3  1  0
  3  4  1  0
  4  5  1  0
M  END
>  <name>  (8) 
Car Nac Nd0 Car Car

>  <indices>  (8) 
[0, 1, 2]

>  <dummy>  (8) 
1

>  <tasks>  (8) 
probe_placing close_aromatic_ring

>  <current_task>  (8) 
close_aromatic_ring

>  <prot_clashes>  (8) 
5

>  <NBS phar>  (8) 
0.2

>  <NBS_non-phar>  (8) 
0.5511885166168213

>  <NBS>  (8) 
0.7511885166168213

>  <source_stage>  (8) 
scored

>  <source_iter>  (8) 
2

>  <source_parent_mol>  (8) 
2

>  <source_scenario>  (8) 
0 2

>  <source_rank_in_scored_call>  (8) 
7

>  <source_current_task>  (8) 
close_aromatic_ring

>  <rotatable_bond_torsions>  (8) 
1,0,2,3

>  <scenario>  (8) 
0

$$$$

     RDKit          3D

  5  4  0  0  0  0  0  0  0  0999 V2000
  -28.3670   -7.7460  -31.9120 C   0  0  0  0  0  0  0  0  0  0  0  0
  -27.6610   -7.1190  -32.8950 N   0  0  0  0  0  0  0  0  0  0  0  0
  -28.0060   -9.0490  -31.5440 N   0  0  0  0  0  0  0  0  0  0  0  0
  -27.3520   -9.3500  -30.4580 C   0  0  0  0  0  0  0  0  0  0  0  0
  -26.9350   -8.2370  -29.5400 C   0  0  0  0  0  0  0  0  0  0  0  0
  1  2  2  0
  1  3  1  0
  3  4  1  0
  4  5  1  0
M  END
>  <name>  (1) 
Car Nac Nd0 Car Car

>  <indices>  (1) 
[0, 1, 2]

>  <dummy>  (1) 
1

>  <tasks>  (1) 
probe_placing close_aromatic_ring

>  <current_task>  (1) 
close_aromatic_ring

>  <prot_clashes>  (1) 
6

>  <NBS phar>  (1) 
0.2

>  <NBS_non-phar>  (1) 
0.7955093383789062

>  <NBS>  (1) 
0.9955093383789062

>  <source_stage>  (1) 
scored

>  <source_iter>  (1) 
2

>  <source_parent_mol>  (1) 
3

>  <source_scenario>  (1) 
0 3

>  <source_rank_in_scored_call>  (1) 
0

>  <source_current_task>  (1) 
close_aromatic_ring

>  <rotatable_bond_torsions>  (1) 
1,0,2,3

>  <scenario>  (1) 
0

$$$$

     RDKit          3D

  5  4  0  0  0  0  0  0  0  0999 V2000
  -28.2470   -7.5270  -32.0350 C   0  0  0  0  0  0  0  0  0  0  0  0
  -27.7090   -7.0020  -33.1720 N   0  0  0  0  0  0  0  0  0  0  0  0
  -28.0510   -8.8870  -31.7570 N   0  0  0  0  0  0  0  0  0  0  0  0
  -27.2100   -9.3400  -30.8700 C   0  0  0  0  0  0  0  0  0  0  0  0
  -26.6190   -8.1000  -30.3530 C   0  0  0  0  0  0  0  0  0  0  0  0
  1  2  2  0
  1  3  1  0
  3  4  1  0
  4  5  2  0
M  END
>  <name>  (2) 
Car Nac Nd0 Car Car

>  <indices>  (2) 
[0, 1, 2]

>  <dummy>  (2) 
1

>  <tasks>  (2) 
probe_placing close_aromatic_ring

>  <current_task>  (2) 
close_aromatic_ring

>  <prot_clashes>  (2) 
7

>  <NBS phar>  (2) 
0.22000000000000003

>  <NBS_non-phar>  (2) 
0.6449050426483154

>  <NBS>  (2) 
0.8649050426483154

>  <source_stage>  (2) 
scored

>  <source_iter>  (2) 
2

>  <source_parent_mol>  (2) 
3

>  <source_scenario>  (2) 
0 3

>  <source_rank_in_scored_call>  (2) 
1

>  <source_current_task>  (2) 
close_aromatic_ring

>  <rotatable_bond_torsions>  (2) 
1,0,2,3

>  <scenario>  (2) 
0

$$$$

     RDKit          3D

  5  4  0  0  0  0  0  0  0  0999 V2000
  -28.3730   -7.9290  -32.0960 C   0  0  0  0  0  0  0  0  0  0  0  0
  -27.4610   -7.1440  -32.7360 N   0  0  0  0  0  0  0  0  0  0  0  0
  -28.5470   -9.2530  -32.5240 N   0  0  0  0  0  0  0  0  0  0  0  0
  -28.0800  -10.2930  -31.8940 C   0  0  0  0  0  0  0  0  0  0  0  0
  -28.7250  -11.5590  -32.1800 C   0  0  0  0  0  0  0  0  0  0  0  0
  1  2  2  0
  1  3  1  0
  3  4  1  0
  4  5  1  0
M  END
>  <name>  (3) 
Car Nac Nd0 Car Car

>  <indices>  (3) 
[0, 1, 2]

>  <dummy>  (3) 
1

>  <tasks>  (3) 
probe_placing close_aromatic_ring

>  <current_task>  (3) 
close_aromatic_ring

>  <prot_clashes>  (3) 
2

>  <NBS phar>  (3) 
0.1

>  <NBS_non-phar>  (3) 
0.5065649032592774

>  <NBS>  (3) 
0.6065649032592774

>  <source_stage>  (3) 
scored

>  <source_iter>  (3) 
2

>  <source_parent_mol>  (3) 
3

>  <source_scenario>  (3) 
0 3

>  <source_rank_in_scored_call>  (3) 
2

>  <source_current_task>  (3) 
close_aromatic_ring

>  <rotatable_bond_torsions>  (3) 
1,0,2,3

>  <scenario>  (3) 
0

$$$$

     RDKit          3D

  5  4  0  0  0  0  0  0  0  0999 V2000
  -28.3550   -7.8780  -32.1120 C   0  0  0  0  0  0  0  0  0  0  0  0
  -27.2340   -7.2150  -32.5140 N   0  0  0  0  0  0  0  0  0  0  0  0
  -28.5900   -9.1710  -32.6010 N   0  0  0  0  0  0  0  0  0  0  0  0
  -28.4060  -10.2600  -31.9100 C   0  0  0  0  0  0  0  0  0  0  0  0
  -29.4760  -11.0800  -31.4420 C   0  0  0  0  0  0  0  0  0  0  0  0
  1  3  1  0
  1  2  2  0
  3  4  1  0
  4  5  2  0
M  END
>  <name>  (4) 
Car Nac Nd0 Car Car

>  <indices>  (4) 
[0, 1, 2]

>  <dummy>  (4) 
1

>  <tasks>  (4) 
probe_placing close_aromatic_ring

>  <current_task>  (4) 
close_aromatic_ring

>  <prot_clashes>  (4) 
3

>  <NBS phar>  (4) 
0.1

>  <NBS_non-phar>  (4) 
0.38501145839691164

>  <NBS>  (4) 
0.4850114583969116

>  <source_stage>  (4) 
scored

>  <source_iter>  (4) 
2

>  <source_parent_mol>  (4) 
3

>  <source_scenario>  (4) 
0 3

>  <source_rank_in_scored_call>  (4) 
3

>  <source_current_task>  (4) 
close_aromatic_ring

>  <rotatable_bond_torsions>  (4) 
1,0,2,3

>  <scenario>  (4) 
0

$$$$

     RDKit          3D

  5  4  0  0  0  0  0  0  0  0999 V2000
  -28.6720   -7.9300  -32.5490 C   0  0  0  0  0  0  0  0  0  0  0  0
  -27.4860   -7.2640  -32.6410 N   0  0  0  0  0  0  0  0  0  0  0  0
  -28.6680   -9.3310  -32.5940 N   0  0  0  0  0  0  0  0  0  0  0  0
  -28.8260  -10.0980  -31.5520 C   0  0  0  0  0  0  0  0  0  0  0  0
  -29.0090   -9.5600  -30.2560 C   0  0  0  0  0  0  0  0  0  0  0  0
  1  2  2  0
  1  3  1  0
  3  4  1  0
  4  5  2  0
M  END
>  <name>  (5) 
Car Nac Nd0 Car Car

>  <indices>  (5) 
[0, 1, 2]

>  <dummy>  (5) 
1

>  <tasks>  (5) 
probe_placing close_aromatic_ring

>  <current_task>  (5) 
close_aromatic_ring

>  <prot_clashes>  (5) 
5

>  <NBS phar>  (5) 
0.1

>  <NBS_non-phar>  (5) 
0.36217041015625

>  <NBS>  (5) 
0.46217041015625004

>  <source_stage>  (5) 
scored

>  <source_iter>  (5) 
2

>  <source_parent_mol>  (5) 
3

>  <source_scenario>  (5) 
0 3

>  <source_rank_in_scored_call>  (5) 
4

>  <source_current_task>  (5) 
close_aromatic_ring

>  <rotatable_bond_torsions>  (5) 
1,0,2,3

>  <scenario>  (5) 
0

$$$$

     RDKit          3D

  5  4  0  0  0  0  0  0  0  0999 V2000
  -28.5450   -8.2770  -32.0450 C   0  0  0  0  0  0  0  0  0  0  0  0
  -27.6990   -7.3920  -32.6440 N   0  0  0  0  0  0  0  0  0  0  0  0
  -28.6200   -9.5860  -32.5410 N   0  0  0  0  0  0  0  0  0  0  0  0
  -28.0710  -10.6200  -31.9680 C   0  0  0  0  0  0  0  0  0  0  0  0
  -28.3160  -11.9210  -32.4460 C   0  0  0  0  0  0  0  0  0  0  0  0
  1  2  2  0
  1  3  1  0
  3  4  1  0
  4  5  2  0
M  END
>  <name>  (6) 
Car Nac Nd0 Car Car

>  <indices>  (6) 
[0, 1, 2]

>  <dummy>  (6) 
1

>  <tasks>  (6) 
probe_placing close_aromatic_ring

>  <current_task>  (6) 
close_aromatic_ring

>  <prot_clashes>  (6) 
3

>  <NBS phar>  (6) 
0.1

>  <NBS_non-phar>  (6) 
0.35015485286712644

>  <NBS>  (6) 
0.4501548528671264

>  <source_stage>  (6) 
scored

>  <source_iter>  (6) 
2

>  <source_parent_mol>  (6) 
3

>  <source_scenario>  (6) 
0 3

>  <source_rank_in_scored_call>  (6) 
5

>  <source_current_task>  (6) 
close_aromatic_ring

>  <rotatable_bond_torsions>  (6) 
1,0,2,3

>  <scenario>  (6) 
0

$$$$

     RDKit          3D

  5  4  0  0  0  0  0  0  0  0999 V2000
  -28.6330   -8.0110  -32.0790 C   0  0  0  0  0  0  0  0  0  0  0  0
  -27.5640   -7.3410  -32.5960 N   0  0  0  0  0  0  0  0  0  0  0  0
  -28.9070   -9.3070  -32.5380 N   0  0  0  0  0  0  0  0  0  0  0  0
  -28.6450  -10.3920  -31.8670 C   0  0  0  0  0  0  0  0  0  0  0  0
  -27.7200  -11.3650  -32.3690 C   0  0  0  0  0  0  0  0  0  0  0  0
  1  2  2  0
  1  3  1  0
  3  4  1  0
  4  5  2  0
M  END
>  <name>  (7) 
Car Nac Nd0 Car Car

>  <indices>  (7) 
[0, 1, 2]

>  <dummy>  (7) 
1

>  <tasks>  (7) 
probe_placing close_aromatic_ring

>  <current_task>  (7) 
close_aromatic_ring

>  <prot_clashes>  (7) 
5

>  <NBS phar>  (7) 
0.1

>  <NBS_non-phar>  (7) 
0.27060134410858155

>  <NBS>  (7) 
0.3706013441085816

>  <source_stage>  (7) 
scored

>  <source_iter>  (7) 
2

>  <source_parent_mol>  (7) 
3

>  <source_scenario>  (7) 
0 3

>  <source_rank_in_scored_call>  (7) 
6

>  <source_current_task>  (7) 
close_aromatic_ring

>  <rotatable_bond_torsions>  (7) 
1,0,2,3

>  <scenario>  (7) 
0

$$$$

     RDKit          3D

  5  4  0  0  0  0  0  0  0  0999 V2000
  -28.8390   -8.3820  -32.1680 C   0  0  0  0  0  0  0  0  0  0  0  0
  -27.7380   -7.7470  -32.6620 N   0  0  0  0  0  0  0  0  0  0  0  0
  -29.0470   -9.7300  -32.4930 N   0  0  0  0  0  0  0  0  0  0  0  0
  -28.8290  -10.7230  -31.6770 C   0  0  0  0  0  0  0  0  0  0  0  0
  -27.7830  -11.5880  -31.9480 C   0  0  0  0  0  0  0  0  0  0  0  0
  1  2  2  0
  1  3  1  0
  3  4  1  0
  4  5  1  0
M  END
>  <name>  (8) 
Car Nac Nd0 Car Car

>  <indices>  (8) 
[0, 1, 2]

>  <dummy>  (8) 
1

>  <tasks>  (8) 
probe_placing close_aromatic_ring

>  <current_task>  (8) 
close_aromatic_ring

>  <prot_clashes>  (8) 
5

>  <NBS phar>  (8) 
0.1

>  <NBS_non-phar>  (8) 
0.16259229183197021

>  <NBS>  (8) 
0.2625922918319702

>  <source_stage>  (8) 
scored

>  <source_iter>  (8) 
2

>  <source_parent_mol>  (8) 
3

>  <source_scenario>  (8) 
0 3

>  <source_rank_in_scored_call>  (8) 
7

>  <source_current_task>  (8) 
close_aromatic_ring

>  <rotatable_bond_torsions>  (8) 
1,0,2,3

>  <scenario>  (8) 
0

$$$$

     RDKit          3D

  4  3  0  0  0  0  0  0  0  0999 V2000
  -27.8640   -7.4760  -31.1990 C   0  0  0  0  0  0  0  0  0  0  0  0
  -27.5380   -6.7190  -32.2850 N   0  0  0  0  0  0  0  0  0  0  0  0
  -27.6840   -8.8650  -31.2620 N   0  0  0  0  0  0  0  0  0  0  0  0
  -27.8024   -5.3830  -31.8813 C   0  0  0  0  0  0  0  0  0  0  0  0
  1  2  2  3
  1  3  1  0
  2  4  1  0
M  END
>  <name>  (1) 
Car Nac Nd0 Car

>  <indices>  (1) 
[0, 1, 2]

>  <dummy>  (1) 
2

>  <tasks>  (1) 
probe_placing

>  <current_task>  (1) 
close_aromatic_ring

>  <prot_clashes>  (1) 
1

>  <NBS phar>  (1) 
0.2

>  <NBS_non-phar>  (1) 
0.9189163446426392

>  <NBS>  (1) 
1.1189163446426391

>  <source_stage>  (1) 
scored

>  <source_iter>  (1) 
1

>  <source_parent_mol>  (1) 
1

>  <source_scenario>  (1) 
1

>  <source_rank_in_scored_call>  (1) 
0

>  <source_current_task>  (1) 
close_aromatic_ring

$$$$

     RDKit          3D

  4  3  0  0  0  0  0  0  0  0999 V2000
  -27.8640   -7.4760  -31.1990 C   0  0  0  0  0  0  0  0  0  0  0  0
  -27.5380   -6.7190  -32.2850 N   0  0  0  0  0  0  0  0  0  0  0  0
  -27.6840   -8.8650  -31.2620 N   0  0  0  0  0  0  0  0  0  0  0  0
  -27.8294   -5.1428  -31.8308 C   0  0  0  0  0  0  0  0  0  0  0  0
  1  2  2  3
  1  3  1  0
  2  4  1  0
M  END
>  <name>  (2) 
Car Nac Nd0 Car

>  <indices>  (2) 
[0, 1, 2]

>  <dummy>  (2) 
2

>  <tasks>  (2) 
probe_placing

>  <current_task>  (2) 
close_aromatic_ring

>  <prot_clashes>  (2) 
1

>  <NBS phar>  (2) 
0.2

>  <NBS_non-phar>  (2) 
0.8832352757453918

>  <NBS>  (2) 
1.0832352757453918

>  <source_stage>  (2) 
scored

>  <source_iter>  (2) 
1

>  <source_parent_mol>  (2) 
1

>  <source_scenario>  (2) 
1

>  <source_rank_in_scored_call>  (2) 
1

>  <source_current_task>  (2) 
close_aromatic_ring

$$$$

     RDKit          3D

  4  3  0  0  0  0  0  0  0  0999 V2000
  -27.7540   -7.0150  -31.7320 C   0  0  0  0  0  0  0  0  0  0  0  0
  -27.6720   -6.2380  -32.8490 N   0  0  0  0  0  0  0  0  0  0  0  0
  -27.8030   -8.4080  -31.8780 N   0  0  0  0  0  0  0  0  0  0  0  0
  -27.5810   -4.6700  -32.2940 C   0  0  0  0  0  0  0  0  0  0  0  0
  1  2  2  3
  1  3  1  0
  2  4  1  0
M  END
>  <name>  (3) 
Car Nac Nd0 Car

>  <indices>  (3) 
[0, 1, 2]

>  <dummy>  (3) 
2

>  <tasks>  (3) 
probe_placing

>  <current_task>  (3) 
close_aromatic_ring

>  <prot_clashes>  (3) 
2

>  <NBS phar>  (3) 
0.1

>  <NBS_non-phar>  (3) 
0.8644930124282837

>  <NBS>  (3) 
0.9644930124282837

>  <source_stage>  (3) 
scored

>  <source_iter>  (3) 
1

>  <source_parent_mol>  (3) 
1

>  <source_scenario>  (3) 
1

>  <source_rank_in_scored_call>  (3) 
2

>  <source_current_task>  (3) 
close_aromatic_ring

$$$$

     RDKit          3D

  4  3  0  0  0  0  0  0  0  0999 V2000
  -27.8220   -7.2730  -31.7410 C   0  0  0  0  0  0  0  0  0  0  0  0
  -27.7000   -6.5550  -32.8940 N   0  0  0  0  0  0  0  0  0  0  0  0
  -27.6300   -8.6610  -31.7840 N   0  0  0  0  0  0  0  0  0  0  0  0
  -27.9170   -5.2080  -32.5000 C   0  0  0  0  0  0  0  0  0  0  0  0
  1  2  2  3
  1  3  1  0
  2  4  1  0
M  END
>  <name>  (4) 
Car Nac Nd0 Car

>  <indices>  (4) 
[0, 1, 2]

>  <dummy>  (4) 
2

>  <tasks>  (4) 
probe_placing

>  <current_task>  (4) 
close_aromatic_ring

>  <prot_clashes>  (4) 
2

>  <NBS phar>  (4) 
0.2

>  <NBS_non-phar>  (4) 
0.7015990018844604

>  <NBS>  (4) 
0.9015990018844604

>  <source_stage>  (4) 
scored

>  <source_iter>  (4) 
1

>  <source_parent_mol>  (4) 
1

>  <source_scenario>  (4) 
1

>  <source_rank_in_scored_call>  (4) 
3

>  <source_current_task>  (4) 
close_aromatic_ring

$$$$

     RDKit          3D

  5  4  0  0  0  0  0  0  0  0999 V2000
  -27.8640   -7.4760  -31.1990 C   0  0  0  0  0  0  0  0  0  0  0  0
  -27.5380   -6.7190  -32.2850 N   0  0  0  0  0  0  0  0  0  0  0  0
  -27.6840   -8.8650  -31.2620 N   0  0  0  0  0  0  0  0  0  0  0  0
  -27.8024   -5.3830  -31.8813 C   0  0  0  0  0  0  0  0  0  0  0  0
  -28.2578   -4.8905  -30.7215 C   0  0  0  0  0  0  0  0  0  0  0  0
  1  2  2  3
  1  3  1  0
  2  4  1  0
  4  5  1  0
M  END
>  <name>  (1) 
Car Nac Nd0 Car Car

>  <indices>  (1) 
[0, 1, 2]

>  <dummy>  (1) 
2

>  <tasks>  (1) 
probe_placing close_aromatic_ring

>  <current_task>  (1) 
close_aromatic_ring

>  <prot_clashes>  (1) 
0

>  <NBS phar>  (1) 
0.2

>  <NBS_non-phar>  (1) 
0.8961941719055175

>  <NBS>  (1) 
1.0961941719055175

>  <source_stage>  (1) 
scored

>  <source_iter>  (1) 
2

>  <source_parent_mol>  (1) 
0

>  <source_scenario>  (1) 
1 0

>  <source_rank_in_scored_call>  (1) 
0

>  <source_current_task>  (1) 
close_aromatic_ring

>  <scenario>  (1) 
1

$$$$

     RDKit          3D

  5  4  0  0  0  0  0  0  0  0999 V2000
  -27.8640   -7.4760  -31.1990 C   0  0  0  0  0  0  0  0  0  0  0  0
  -27.5380   -6.7190  -32.2850 N   0  0  0  0  0  0  0  0  0  0  0  0
  -27.6840   -8.8650  -31.2620 N   0  0  0  0  0  0  0  0  0  0  0  0
  -27.8024   -5.3830  -31.8813 C   0  0  0  0  0  0  0  0  0  0  0  0
  -28.2367   -4.9275  -30.7486 C   0  0  0  0  0  0  0  0  0  0  0  0
  1  2  2  3
  1  3  1  0
  2  4  1  0
  4  5  2  0
M  END
>  <name>  (2) 
Car Nac Nd0 Car Car

>  <indices>  (2) 
[0, 1, 2]

>  <dummy>  (2) 
2

>  <tasks>  (2) 
probe_placing close_aromatic_ring

>  <current_task>  (2) 
close_aromatic_ring

>  <prot_clashes>  (2) 
0

>  <NBS phar>  (2) 
0.2

>  <NBS_non-phar>  (2) 
0.8957483291625976

>  <NBS>  (2) 
1.0957483291625976

>  <source_stage>  (2) 
scored

>  <source_iter>  (2) 
2

>  <source_parent_mol>  (2) 
0

>  <source_scenario>  (2) 
1 0

>  <source_rank_in_scored_call>  (2) 
1

>  <source_current_task>  (2) 
close_aromatic_ring

>  <scenario>  (2) 
1

$$$$

     RDKit          3D

  5  4  0  0  0  0  0  0  0  0999 V2000
  -27.8640   -7.4760  -31.1990 C   0  0  0  0  0  0  0  0  0  0  0  0
  -27.5380   -6.7190  -32.2850 N   0  0  0  0  0  0  0  0  0  0  0  0
  -27.6840   -8.8650  -31.2620 N   0  0  0  0  0  0  0  0  0  0  0  0
  -27.8024   -5.3830  -31.8813 C   0  0  0  0  0  0  0  0  0  0  0  0
  -28.2684   -5.4774  -30.5909 C   0  0  0  0  0  0  0  0  0  0  0  0
  1  2  2  3
  1  3  1  0
  2  4  1  0
  4  5  1  0
M  END
>  <name>  (3) 
Car Nac Nd0 Car Car

>  <indices>  (3) 
[0, 1, 2]

>  <dummy>  (3) 
2

>  <tasks>  (3) 
probe_placing close_aromatic_ring

>  <current_task>  (3) 
close_aromatic_ring

>  <prot_clashes>  (3) 
1

>  <NBS phar>  (3) 
0.2

>  <NBS_non-phar>  (3) 
0.8843547821044921

>  <NBS>  (3) 
1.084354782104492

>  <source_stage>  (3) 
scored

>  <source_iter>  (3) 
2

>  <source_parent_mol>  (3) 
0

>  <source_scenario>  (3) 
1 0

>  <source_rank_in_scored_call>  (3) 
2

>  <source_current_task>  (3) 
close_aromatic_ring

>  <scenario>  (3) 
1

$$$$

     RDKit          3D

  5  4  0  0  0  0  0  0  0  0999 V2000
  -27.6950   -7.4370  -31.6550 C   0  0  0  0  0  0  0  0  0  0  0  0
  -27.6910   -6.7710  -32.8450 N   0  0  0  0  0  0  0  0  0  0  0  0
  -27.3070   -8.7840  -31.6310 N   0  0  0  0  0  0  0  0  0  0  0  0
  -28.0920   -5.4490  -32.5150 C   0  0  0  0  0  0  0  0  0  0  0  0
  -28.3900   -4.9340  -31.3640 C   0  0  0  0  0  0  0  0  0  0  0  0
  1  2  2  3
  1  3  1  0
  2  4  1  0
  4  5  2  0
M  END
>  <name>  (4) 
Car Nac Nd0 Car Car

>  <indices>  (4) 
[0, 1, 2]

>  <dummy>  (4) 
2

>  <tasks>  (4) 
probe_placing close_aromatic_ring

>  <current_task>  (4) 
close_aromatic_ring

>  <prot_clashes>  (4) 
1

>  <NBS phar>  (4) 
0.22000000000000003

>  <NBS_non-phar>  (4) 
0.7891637802124023

>  <NBS>  (4) 
1.0091637802124023

>  <source_stage>  (4) 
scored

>  <source_iter>  (4) 
2

>  <source_parent_mol>  (4) 
0

>  <source_scenario>  (4) 
1 0

>  <source_rank_in_scored_call>  (4) 
3

>  <source_current_task>  (4) 
close_aromatic_ring

>  <scenario>  (4) 
1

$$$$

     RDKit          3D

  5  4  0  0  0  0  0  0  0  0999 V2000
  -27.7800   -7.4870  -31.5600 C   0  0  0  0  0  0  0  0  0  0  0  0
  -27.3190   -6.6400  -32.5230 N   0  0  0  0  0  0  0  0  0  0  0  0
  -27.6660   -8.8700  -31.7620 N   0  0  0  0  0  0  0  0  0  0  0  0
  -27.5500   -5.3410  -31.9960 C   0  0  0  0  0  0  0  0  0  0  0  0
  -27.3040   -4.0850  -32.5120 C   0  0  0  0  0  0  0  0  0  0  0  0
  1  2  2  3
  1  3  1  0
  2  4  1  0
  4  5  2  0
M  END
>  <name>  (5) 
Car Nac Nd0 Car Car

>  <indices>  (5) 
[0, 1, 2]

>  <dummy>  (5) 
2

>  <tasks>  (5) 
probe_placing close_aromatic_ring

>  <current_task>  (5) 
close_aromatic_ring

>  <prot_clashes>  (5) 
1

>  <NBS phar>  (5) 
0.2

>  <NBS_non-phar>  (5) 
0.7970532894134521

>  <NBS>  (5) 
0.9970532894134521

>  <source_stage>  (5) 
scored

>  <source_iter>  (5) 
2

>  <source_parent_mol>  (5) 
0

>  <source_scenario>  (5) 
1 0

>  <source_rank_in_scored_call>  (5) 
4

>  <source_current_task>  (5) 
close_aromatic_ring

>  <scenario>  (5) 
1

$$$$

     RDKit          3D

  5  4  0  0  0  0  0  0  0  0999 V2000
  -27.6830   -7.4700  -31.6480 C   0  0  0  0  0  0  0  0  0  0  0  0
  -27.6900   -6.8070  -32.8390 N   0  0  0  0  0  0  0  0  0  0  0  0
  -27.3160   -8.8230  -31.6270 N   0  0  0  0  0  0  0  0  0  0  0  0
  -28.0650   -5.4780  -32.5060 C   0  0  0  0  0  0  0  0  0  0  0  0
  -28.3540   -4.9180  -31.3240 C   0  0  0  0  0  0  0  0  0  0  0  0
  1  2  2  3
  1  3  1  0
  2  4  1  0
  4  5  1  0
M  END
>  <name>  (6) 
Car Nac Nd0 Car Car

>  <indices>  (6) 
[0, 1, 2]

>  <dummy>  (6) 
2

>  <tasks>  (6) 
probe_placing close_aromatic_ring

>  <current_task>  (6) 
close_aromatic_ring

>  <prot_clashes>  (6) 
1

>  <NBS phar>  (6) 
0.2

>  <NBS_non-phar>  (6) 
0.7968400478363037

>  <NBS>  (6) 
0.9968400478363038

>  <source_stage>  (6) 
scored

>  <source_iter>  (6) 
2

>  <source_parent_mol>  (6) 
0

>  <source_scenario>  (6) 
1 0

>  <source_rank_in_scored_call>  (6) 
5

>  <source_current_task>  (6) 
close_aromatic_ring

>  <scenario>  (6) 
1

$$$$

     RDKit          3D

  5  4  0  0  0  0  0  0  0  0999 V2000
  -28.0390   -7.4530  -31.7250 C   0  0  0  0  0  0  0  0  0  0  0  0
  -27.5090   -6.5100  -32.5550 N   0  0  0  0  0  0  0  0  0  0  0  0
  -28.0120   -8.7980  -32.1210 N   0  0  0  0  0  0  0  0  0  0  0  0
  -27.6630   -5.2870  -31.8500 C   0  0  0  0  0  0  0  0  0  0  0  0
  -27.1370   -4.0430  -32.4270 C   0  0  0  0  0  0  0  0  0  0  0  0
  1  2  2  3
  1  3  1  0
  2  4  1  0
  4  5  1  0
M  END
>  <name>  (7) 
Car Nac Nd0 Car Car

>  <indices>  (7) 
[0, 1, 2]

>  <dummy>  (7) 
2

>  <tasks>  (7) 
probe_placing close_aromatic_ring

>  <current_task>  (7) 
close_aromatic_ring

>  <prot_clashes>  (7) 
2

>  <NBS phar>  (7) 
0.1

>  <NBS_non-phar>  (7) 
0.8467942237854004

>  <NBS>  (7) 
0.9467942237854003

>  <source_stage>  (7) 
scored

>  <source_iter>  (7) 
2

>  <source_parent_mol>  (7) 
0

>  <source_scenario>  (7) 
1 0

>  <source_rank_in_scored_call>  (7) 
6

>  <source_current_task>  (7) 
close_aromatic_ring

>  <scenario>  (7) 
1

$$$$

     RDKit          3D

  5  4  0  0  0  0  0  0  0  0999 V2000
  -27.8640   -7.4760  -31.1990 C   0  0  0  0  0  0  0  0  0  0  0  0
  -27.5380   -6.7190  -32.2850 N   0  0  0  0  0  0  0  0  0  0  0  0
  -27.6840   -8.8650  -31.2620 N   0  0  0  0  0  0  0  0  0  0  0  0
  -27.8024   -5.3830  -31.8813 C   0  0  0  0  0  0  0  0  0  0  0  0
  -27.6773   -4.1821  -32.5481 C   0  0  0  0  0  0  0  0  0  0  0  0
  1  2  2  3
  1  3  1  0
  2  4  1  0
  4  5  2  0
M  END
>  <name>  (8) 
Car Nac Nd0 Car Car

>  <indices>  (8) 
[0, 1, 2]

>  <dummy>  (8) 
2

>  <tasks>  (8) 
probe_placing close_aromatic_ring

>  <current_task>  (8) 
close_aromatic_ring

>  <prot_clashes>  (8) 
2

>  <NBS phar>  (8) 
0.2

>  <NBS_non-phar>  (8) 
0.7355108261108398

>  <NBS>  (8) 
0.9355108261108398

>  <source_stage>  (8) 
scored

>  <source_iter>  (8) 
2

>  <source_parent_mol>  (8) 
0

>  <source_scenario>  (8) 
1 0

>  <source_rank_in_scored_call>  (8) 
7

>  <source_current_task>  (8) 
close_aromatic_ring

>  <scenario>  (8) 
1

$$$$

     RDKit          3D

  5  4  0  0  0  0  0  0  0  0999 V2000
  -27.8640   -7.4760  -31.1990 C   0  0  0  0  0  0  0  0  0  0  0  0
  -27.5380   -6.7190  -32.2850 N   0  0  0  0  0  0  0  0  0  0  0  0
  -27.6840   -8.8650  -31.2620 N   0  0  0  0  0  0  0  0  0  0  0  0
  -27.8024   -5.3830  -31.8813 C   0  0  0  0  0  0  0  0  0  0  0  0
  -27.6445   -4.2066  -32.6013 C   0  0  0  0  0  0  0  0  0  0  0  0
  1  2  2  3
  1  3  1  0
  2  4  1  0
  4  5  1  0
M  END
>  <name>  (9) 
Car Nac Nd0 Car Car

>  <indices>  (9) 
[0, 1, 2]

>  <dummy>  (9) 
2

>  <tasks>  (9) 
probe_placing close_aromatic_ring

>  <current_task>  (9) 
close_aromatic_ring

>  <prot_clashes>  (9) 
4

>  <NBS phar>  (9) 
0.2

>  <NBS_non-phar>  (9) 
0.735344648361206

>  <NBS>  (9) 
0.935344648361206

>  <source_stage>  (9) 
scored

>  <source_iter>  (9) 
2

>  <source_parent_mol>  (9) 
0

>  <source_scenario>  (9) 
1 0

>  <source_rank_in_scored_call>  (9) 
8

>  <source_current_task>  (9) 
close_aromatic_ring

>  <scenario>  (9) 
1

$$$$

     RDKit          3D

  5  4  0  0  0  0  0  0  0  0999 V2000
  -27.8640   -7.4760  -31.1990 C   0  0  0  0  0  0  0  0  0  0  0  0
  -27.5380   -6.7190  -32.2850 N   0  0  0  0  0  0  0  0  0  0  0  0
  -27.6840   -8.8650  -31.2620 N   0  0  0  0  0  0  0  0  0  0  0  0
  -27.8024   -5.3830  -31.8813 C   0  0  0  0  0  0  0  0  0  0  0  0
  -27.5000   -4.2729  -32.7943 C   0  0  0  0  0  0  0  0  0  0  0  0
  1  2  2  3
  1  3  1  0
  2  4  1  0
  4  5  1  0
M  END
>  <name>  (10) 
Car Nac Nd0 Car Car

>  <indices>  (10) 
[0, 1, 2]

>  <dummy>  (10) 
2

>  <tasks>  (10) 
probe_placing close_aromatic_ring

>  <current_task>  (10) 
close_aromatic_ring

>  <prot_clashes>  (10) 
6

>  <NBS phar>  (10) 
0.2

>  <NBS_non-phar>  (10) 
0.7351377487182618

>  <NBS>  (10) 
0.9351377487182617

>  <source_stage>  (10) 
scored

>  <source_iter>  (10) 
2

>  <source_parent_mol>  (10) 
0

>  <source_scenario>  (10) 
1 0

>  <source_rank_in_scored_call>  (10) 
9

>  <source_current_task>  (10) 
close_aromatic_ring

>  <scenario>  (10) 
1

$$$$

     RDKit          3D

  5  4  0  0  0  0  0  0  0  0999 V2000
  -27.8640   -7.4760  -31.1990 C   0  0  0  0  0  0  0  0  0  0  0  0
  -27.5380   -6.7190  -32.2850 N   0  0  0  0  0  0  0  0  0  0  0  0
  -27.6840   -8.8650  -31.2620 N   0  0  0  0  0  0  0  0  0  0  0  0
  -27.8024   -5.3830  -31.8813 C   0  0  0  0  0  0  0  0  0  0  0  0
  -27.4496   -4.5032  -33.0885 C   0  0  0  0  0  0  0  0  0  0  0  0
  1  2  2  3
  1  3  1  0
  2  4  1  0
  4  5  2  0
M  END
>  <name>  (11) 
Car Nac Nd0 Car Car

>  <indices>  (11) 
[0, 1, 2]

>  <dummy>  (11) 
2

>  <tasks>  (11) 
probe_placing close_aromatic_ring

>  <current_task>  (11) 
close_aromatic_ring

>  <prot_clashes>  (11) 
6

>  <NBS phar>  (11) 
0.2

>  <NBS_non-phar>  (11) 
0.7351341724395752

>  <NBS>  (11) 
0.9351341724395752

>  <source_stage>  (11) 
scored

>  <source_iter>  (11) 
2

>  <source_parent_mol>  (11) 
0

>  <source_scenario>  (11) 
1 0

>  <source_rank_in_scored_call>  (11) 
10

>  <source_current_task>  (11) 
close_aromatic_ring

>  <scenario>  (11) 
1

$$$$

     RDKit          3D

  5  4  0  0  0  0  0  0  0  0999 V2000
  -27.8210   -7.5470  -31.5450 C   0  0  0  0  0  0  0  0  0  0  0  0
  -27.3740   -6.6850  -32.5030 N   0  0  0  0  0  0  0  0  0  0  0  0
  -27.7110   -8.9260  -31.7700 N   0  0  0  0  0  0  0  0  0  0  0  0
  -27.5970   -5.3940  -31.9530 C   0  0  0  0  0  0  0  0  0  0  0  0
  -27.3240   -4.1520  -32.5070 C   0  0  0  0  0  0  0  0  0  0  0  0
  1  2  2  3
  1  3  1  0
  2  4  1  0
  4  5  1  0
M  END
>  <name>  (12) 
Car Nac Nd0 Car Car

>  <indices>  (12) 
[0, 1, 2]

>  <dummy>  (12) 
2

>  <tasks>  (12) 
probe_placing close_aromatic_ring

>  <current_task>  (12) 
close_aromatic_ring

>  <prot_clashes>  (12) 
4

>  <NBS phar>  (12) 
0.12

>  <NBS_non-phar>  (12) 
0.7840878009796143

>  <NBS>  (12) 
0.9040878009796143

>  <source_stage>  (12) 
scored

>  <source_iter>  (12) 
2

>  <source_parent_mol>  (12) 
0

>  <source_scenario>  (12) 
1 0

>  <source_rank_in_scored_call>  (12) 
11

>  <source_current_task>  (12) 
close_aromatic_ring

>  <scenario>  (12) 
1

$$$$

     RDKit          3D

  5  4  0  0  0  0  0  0  0  0999 V2000
  -27.8260   -7.3580  -31.7350 C   0  0  0  0  0  0  0  0  0  0  0  0
  -27.6870   -6.6180  -32.8720 N   0  0  0  0  0  0  0  0  0  0  0  0
  -27.4150   -8.6980  -31.7440 N   0  0  0  0  0  0  0  0  0  0  0  0
  -28.1560   -5.3250  -32.5150 C   0  0  0  0  0  0  0  0  0  0  0  0
  -28.5360   -5.4250  -31.1980 C   0  0  0  0  0  0  0  0  0  0  0  0
  1  2  2  3
  1  3  1  0
  2  4  1  0
  4  5  1  0
M  END
>  <name>  (13) 
Car Nac Nd0 Car Car

>  <indices>  (13) 
[0, 1, 2]

>  <dummy>  (13) 
2

>  <tasks>  (13) 
probe_placing close_aromatic_ring

>  <current_task>  (13) 
close_aromatic_ring

>  <prot_clashes>  (13) 
2

>  <NBS phar>  (13) 
0.2

>  <NBS_non-phar>  (13) 
0.69342942237854

>  <NBS>  (13) 
0.89342942237854

>  <source_stage>  (13) 
scored

>  <source_iter>  (13) 
2

>  <source_parent_mol>  (13) 
0

>  <source_scenario>  (13) 
1 0

>  <source_rank_in_scored_call>  (13) 
12

>  <source_current_task>  (13) 
close_aromatic_ring

>  <scenario>  (13) 
1

$$$$

     RDKit          3D

  5  4  0  0  0  0  0  0  0  0999 V2000
  -28.0620   -7.6120  -31.7020 C   0  0  0  0  0  0  0  0  0  0  0  0
  -27.5420   -6.6420  -32.5070 N   0  0  0  0  0  0  0  0  0  0  0  0
  -27.9330   -8.9530  -32.0880 N   0  0  0  0  0  0  0  0  0  0  0  0
  -27.8080   -5.4270  -31.8200 C   0  0  0  0  0  0  0  0  0  0  0  0
  -27.2390   -4.3110  -32.7070 C   0  0  0  0  0  0  0  0  0  0  0  0
  1  2  2  3
  1  3  1  0
  2  4  1  0
  4  5  2  0
M  END
>  <name>  (14) 
Car Nac Nd0 Car Car

>  <indices>  (14) 
[0, 1, 2]

>  <dummy>  (14) 
2

>  <tasks>  (14) 
probe_placing close_aromatic_ring

>  <current_task>  (14) 
close_aromatic_ring

>  <prot_clashes>  (14) 
2

>  <NBS phar>  (14) 
0.1

>  <NBS_non-phar>  (14) 
0.7175478935241699

>  <NBS>  (14) 
0.8175478935241699

>  <source_stage>  (14) 
scored

>  <source_iter>  (14) 
2

>  <source_parent_mol>  (14) 
0

>  <source_scenario>  (14) 
1 0

>  <source_rank_in_scored_call>  (14) 
13

>  <source_current_task>  (14) 
close_aromatic_ring

>  <scenario>  (14) 
1

$$$$

     RDKit          3D

  6  5  0  0  0  0  0  0  0  0999 V2000
  -27.8640   -7.4760  -31.1990 C   0  0  0  0  0  0  0  0  0  0  0  0
  -27.5380   -6.7190  -32.2850 N   0  0  0  0  0  0  0  0  0  0  0  0
  -27.6840   -8.8650  -31.2620 N   0  0  0  0  0  0  0  0  0  0  0  0
  -27.8024   -5.3830  -31.8813 C   0  0  0  0  0  0  0  0  0  0  0  0
  -28.2578   -4.8905  -30.7215 C   0  0  0  0  0  0  0  0  0  0  0  0
  -28.6964   -5.6502  -29.5041 C   0  0  0  0  0  0  0  0  0  0  0  0
  1  2  2  3
  1  3  1  0
  2  4  1  0
  4  5  1  0
  5  6  1  0
M  END
>  <name>  (1) 
Car Nac Nd0 Car Car Car

>  <indices>  (1) 
[0, 1, 2]

>  <dummy>  (1) 
2

>  <tasks>  (1) 
probe_placing close_aromatic_ring close_aromatic_ring

>  <current_task>  (1) 
close_aromatic_ring

>  <prot_clashes>  (1) 
1

>  <NBS phar>  (1) 
0.2

>  <NBS_non-phar>  (1) 
0.8808979988098145

>  <NBS>  (1) 
1.0808979988098144

>  <source_stage>  (1) 
scored

>  <source_iter>  (1) 
3

>  <source_parent_mol>  (1) 
0

>  <source_scenario>  (1) 
1 0 0

>  <source_rank_in_scored_call>  (1) 
0

>  <source_current_task>  (1) 
close_aromatic_ring

>  <scenario>  (1) 
1 0

>  <rotatable_bond_torsions>  (1) 
0,1,3,4

$$$$

     RDKit          3D

  6  5  0  0  0  0  0  0  0  0999 V2000
  -27.8640   -7.4760  -31.1990 C   0  0  0  0  0  0  0  0  0  0  0  0
  -27.5380   -6.7190  -32.2850 N   0  0  0  0  0  0  0  0  0  0  0  0
  -27.6840   -8.8650  -31.2620 N   0  0  0  0  0  0  0  0  0  0  0  0
  -27.8024   -5.3830  -31.8813 C   0  0  0  0  0  0  0  0  0  0  0  0
  -28.2578   -4.8905  -30.7215 C   0  0  0  0  0  0  0  0  0  0  0  0
  -28.5306   -5.9011  -29.7337 C   0  0  0  0  0  0  0  0  0  0  0  0
  1  2  2  3
  1  3  1  0
  2  4  1  0
  4  5  1  0
  5  6  2  0
M  END
>  <name>  (2) 
Car Nac Nd0 Car Car Car

>  <indices>  (2) 
[0, 1, 2]

>  <dummy>  (2) 
2

>  <tasks>  (2) 
probe_placing close_aromatic_ring close_aromatic_ring

>  <current_task>  (2) 
close_aromatic_ring

>  <prot_clashes>  (2) 
0

>  <NBS phar>  (2) 
0.22000000000000003

>  <NBS_non-phar>  (2) 
0.8525343736012777

>  <NBS>  (2) 
1.0725343736012778

>  <source_stage>  (2) 
scored

>  <source_iter>  (2) 
3

>  <source_parent_mol>  (2) 
0

>  <source_scenario>  (2) 
1 0 0

>  <source_rank_in_scored_call>  (2) 
1

>  <source_current_task>  (2) 
close_aromatic_ring

>  <scenario>  (2) 
1 0

>  <rotatable_bond_torsions>  (2) 
0,1,3,4

$$$$

     RDKit          3D

  6  5  0  0  0  0  0  0  0  0999 V2000
  -27.8640   -7.4760  -31.1990 C   0  0  0  0  0  0  0  0  0  0  0  0
  -27.5380   -6.7190  -32.2850 N   0  0  0  0  0  0  0  0  0  0  0  0
  -27.6840   -8.8650  -31.2620 N   0  0  0  0  0  0  0  0  0  0  0  0
  -27.8024   -5.3830  -31.8813 C   0  0  0  0  0  0  0  0  0  0  0  0
  -28.2578   -4.8905  -30.7215 C   0  0  0  0  0  0  0  0  0  0  0  0
  -28.5173   -5.9009  -29.7330 C   0  0  0  0  0  0  0  0  0  0  0  0
  1  2  2  3
  1  3  1  0
  2  4  1  0
  4  5  1  0
  5  6  1  0
M  END
>  <name>  (3) 
Car Nac Nd0 Car Car Car

>  <indices>  (3) 
[0, 1, 2]

>  <dummy>  (3) 
2

>  <tasks>  (3) 
probe_placing close_aromatic_ring close_aromatic_ring

>  <current_task>  (3) 
close_aromatic_ring

>  <prot_clashes>  (3) 
1

>  <NBS phar>  (3) 
0.2

>  <NBS_non-phar>  (3) 
0.8564449946085612

>  <NBS>  (3) 
1.0564449946085612

>  <source_stage>  (3) 
scored

>  <source_iter>  (3) 
3

>  <source_parent_mol>  (3) 
0

>  <source_scenario>  (3) 
1 0 0

>  <source_rank_in_scored_call>  (3) 
2

>  <source_current_task>  (3) 
close_aromatic_ring

>  <scenario>  (3) 
1 0

>  <rotatable_bond_torsions>  (3) 
0,1,3,4

$$$$

     RDKit          3D

  6  5  0  0  0  0  0  0  0  0999 V2000
  -27.8640   -7.4760  -31.1990 C   0  0  0  0  0  0  0  0  0  0  0  0
  -27.5380   -6.7190  -32.2850 N   0  0  0  0  0  0  0  0  0  0  0  0
  -27.6840   -8.8650  -31.2620 N   0  0  0  0  0  0  0  0  0  0  0  0
  -27.8024   -5.3830  -31.8813 C   0  0  0  0  0  0  0  0  0  0  0  0
  -28.2578   -4.8905  -30.7215 C   0  0  0  0  0  0  0  0  0  0  0  0
  -28.5614   -5.7200  -29.6646 N   0  0  0  0  0  0  0  0  0  0  0  0
  1  2  2  3
  1  3  1  0
  2  4  1  0
  4  5  1  0
  5  6  1  0
M  END
>  <name>  (4) 
Car Nac Nd0 Car Car Nd0

>  <indices>  (4) 
[0, 1, 2]

>  <dummy>  (4) 
2

>  <tasks>  (4) 
probe_placing close_aromatic_ring close_aromatic_ring

>  <current_task>  (4) 
close_aromatic_ring

>  <prot_clashes>  (4) 
1

>  <NBS phar>  (4) 
0.2

>  <NBS_non-phar>  (4) 
0.7492329279581705

>  <NBS>  (4) 
0.9492329279581706

>  <source_stage>  (4) 
scored

>  <source_iter>  (4) 
3

>  <source_parent_mol>  (4) 
0

>  <source_scenario>  (4) 
1 0 0

>  <source_rank_in_scored_call>  (4) 
3

>  <source_current_task>  (4) 
close_aromatic_ring

>  <scenario>  (4) 
1 0

>  <rotatable_bond_torsions>  (4) 
0,1,3,4

$$$$

     RDKit          3D

  6  5  0  0  0  0  0  0  0  0999 V2000
  -27.7630   -7.4120  -31.6590 C   0  0  0  0  0  0  0  0  0  0  0  0
  -27.6850   -6.7200  -32.8310 N   0  0  0  0  0  0  0  0  0  0  0  0
  -27.3140   -8.7400  -31.6240 N   0  0  0  0  0  0  0  0  0  0  0  0
  -28.1780   -5.4250  -32.5140 C   0  0  0  0  0  0  0  0  0  0  0  0
  -28.6280   -4.9160  -31.3600 C   0  0  0  0  0  0  0  0  0  0  0  0
  -28.8050   -5.6190  -30.0470 C   0  0  0  0  0  0  0  0  0  0  0  0
  1  2  2  3
  1  3  1  0
  2  4  1  0
  4  5  1  0
  5  6  1  0
M  END
>  <name>  (5) 
Car Nac Nd0 Car Car Car

>  <indices>  (5) 
[0, 1, 2]

>  <dummy>  (5) 
2

>  <tasks>  (5) 
probe_placing close_aromatic_ring close_aromatic_ring

>  <current_task>  (5) 
close_aromatic_ring

>  <prot_clashes>  (5) 
5

>  <NBS phar>  (5) 
0.22000000000000003

>  <NBS_non-phar>  (5) 
0.6489003896713257

>  <NBS>  (5) 
0.8689003896713257

>  <source_stage>  (5) 
scored

>  <source_iter>  (5) 
3

>  <source_parent_mol>  (5) 
0

>  <source_scenario>  (5) 
1 0 0

>  <source_rank_in_scored_call>  (5) 
4

>  <source_current_task>  (5) 
close_aromatic_ring

>  <scenario>  (5) 
1 0

>  <rotatable_bond_torsions>  (5) 
0,1,3,4

$$$$

     RDKit          3D

  6  5  0  0  0  0  0  0  0  0999 V2000
  -27.9470   -7.3090  -31.7780 C   0  0  0  0  0  0  0  0  0  0  0  0
  -27.6920   -6.5580  -32.8860 N   0  0  0  0  0  0  0  0  0  0  0  0
  -27.7620   -8.6980  -31.8430 N   0  0  0  0  0  0  0  0  0  0  0  0
  -27.9390   -5.2210  -32.4750 C   0  0  0  0  0  0  0  0  0  0  0  0
  -28.3270   -4.7240  -31.2920 C   0  0  0  0  0  0  0  0  0  0  0  0
  -28.5190   -5.7290  -30.2840 C   0  0  0  0  0  0  0  0  0  0  0  0
  1  2  2  3
  1  3  1  0
  2  4  1  0
  4  5  1  0
  5  6  1  0
M  END
>  <name>  (6) 
Car Nac Nd0 Car Car Car

>  <indices>  (6) 
[0, 1, 2]

>  <dummy>  (6) 
2

>  <tasks>  (6) 
probe_placing close_aromatic_ring close_aromatic_ring

>  <current_task>  (6) 
close_aromatic_ring

>  <prot_clashes>  (6) 
4

>  <NBS phar>  (6) 
0.1

>  <NBS_non-phar>  (6) 
0.7377236684163412

>  <NBS>  (6) 
0.8377236684163412

>  <source_stage>  (6) 
scored

>  <source_iter>  (6) 
3

>  <source_parent_mol>  (6) 
0

>  <source_scenario>  (6) 
1 0 0

>  <source_rank_in_scored_call>  (6) 
5

>  <source_current_task>  (6) 
close_aromatic_ring

>  <scenario>  (6) 
1 0

>  <rotatable_bond_torsions>  (6) 
0,1,3,4

$$$$

     RDKit          3D

  6  5  0  0  0  0  0  0  0  0999 V2000
  -27.9750   -7.3480  -31.7070 C   0  0  0  0  0  0  0  0  0  0  0  0
  -27.6830   -6.5790  -32.7940 N   0  0  0  0  0  0  0  0  0  0  0  0
  -27.7600   -8.7320  -31.7780 N   0  0  0  0  0  0  0  0  0  0  0  0
  -27.9760   -5.2520  -32.3820 C   0  0  0  0  0  0  0  0  0  0  0  0
  -28.4300   -4.7760  -31.2140 C   0  0  0  0  0  0  0  0  0  0  0  0
  -28.6630   -5.7970  -30.2270 C   0  0  0  0  0  0  0  0  0  0  0  0
  1  2  2  3
  1  3  1  0
  2  4  1  0
  4  5  1  0
  5  6  2  0
M  END
>  <name>  (7) 
Car Nac Nd0 Car Car Car

>  <indices>  (7) 
[0, 1, 2]

>  <dummy>  (7) 
2

>  <tasks>  (7) 
probe_placing close_aromatic_ring close_aromatic_ring

>  <current_task>  (7) 
close_aromatic_ring

>  <prot_clashes>  (7) 
1

>  <NBS phar>  (7) 
0.1

>  <NBS_non-phar>  (7) 
0.648535410563151

>  <NBS>  (7) 
0.748535410563151

>  <source_stage>  (7) 
scored

>  <source_iter>  (7) 
3

>  <source_parent_mol>  (7) 
0

>  <source_scenario>  (7) 
1 0 0

>  <source_rank_in_scored_call>  (7) 
6

>  <source_current_task>  (7) 
close_aromatic_ring

>  <scenario>  (7) 
1 0

>  <rotatable_bond_torsions>  (7) 
0,1,3,4

$$$$

     RDKit          3D

  6  5  0  0  0  0  0  0  0  0999 V2000
  -27.8900   -7.3070  -31.7520 C   0  0  0  0  0  0  0  0  0  0  0  0
  -27.6890   -6.5770  -32.8850 N   0  0  0  0  0  0  0  0  0  0  0  0
  -27.6880   -8.6940  -31.7940 N   0  0  0  0  0  0  0  0  0  0  0  0
  -27.9400   -5.2350  -32.4940 C   0  0  0  0  0  0  0  0  0  0  0  0
  -28.2890   -4.7170  -31.3080 C   0  0  0  0  0  0  0  0  0  0  0  0
  -28.4690   -5.5200  -30.2050 N   0  0  0  0  0  0  0  0  0  0  0  0
  1  2  2  3
  1  3  1  0
  2  4  1  0
  4  5  1  0
  5  6  1  0
M  END
>  <name>  (8) 
Car Nac Nd0 Car Car Nd0

>  <indices>  (8) 
[0, 1, 2]

>  <dummy>  (8) 
2

>  <tasks>  (8) 
probe_placing close_aromatic_ring close_aromatic_ring

>  <current_task>  (8) 
close_aromatic_ring

>  <prot_clashes>  (8) 
3

>  <NBS phar>  (8) 
0.1

>  <NBS_non-phar>  (8) 
0.6347615718841553

>  <NBS>  (8) 
0.7347615718841553

>  <source_stage>  (8) 
scored

>  <source_iter>  (8) 
3

>  <source_parent_mol>  (8) 
0

>  <source_scenario>  (8) 
1 0 0

>  <source_rank_in_scored_call>  (8) 
7

>  <source_current_task>  (8) 
close_aromatic_ring

>  <scenario>  (8) 
1 0

>  <rotatable_bond_torsions>  (8) 
0,1,3,4

$$$$

     RDKit          3D

  6  5  0  0  0  0  0  0  0  0999 V2000
  -27.8640   -7.4760  -31.1990 C   0  0  0  0  0  0  0  0  0  0  0  0
  -27.5380   -6.7190  -32.2850 N   0  0  0  0  0  0  0  0  0  0  0  0
  -27.6840   -8.8650  -31.2620 N   0  0  0  0  0  0  0  0  0  0  0  0
  -27.8024   -5.3830  -31.8813 C   0  0  0  0  0  0  0  0  0  0  0  0
  -28.2367   -4.9275  -30.7486 C   0  0  0  0  0  0  0  0  0  0  0  0
  -28.6734   -5.6694  -29.5069 C   0  0  0  0  0  0  0  0  0  0  0  0
  1  2  2  3
  1  3  1  0
  2  4  1  0
  4  5  2  3
  5  6  1  0
M  END
>  <name>  (1) 
Car Nac Nd0 Car Car Car

>  <indices>  (1) 
[0, 1, 2]

>  <dummy>  (1) 
2

>  <tasks>  (1) 
probe_placing close_aromatic_ring close_aromatic_ring

>  <current_task>  (1) 
close_aromatic_ring

>  <prot_clashes>  (1) 
1

>  <NBS phar>  (1) 
0.2

>  <NBS_non-phar>  (1) 
0.8784493605295817

>  <NBS>  (1) 
1.0784493605295817

>  <source_stage>  (1) 
scored

>  <source_iter>  (1) 
3

>  <source_parent_mol>  (1) 
1

>  <source_scenario>  (1) 
1 0 1

>  <source_rank_in_scored_call>  (1) 
0

>  <source_current_task>  (1) 
close_aromatic_ring

>  <scenario>  (1) 
1 0

>  <rotatable_bond_torsions>  (1) 
0,1,3,4

$$$$

     RDKit          3D

  6  5  0  0  0  0  0  0  0  0999 V2000
  -27.8640   -7.4760  -31.1990 C   0  0  0  0  0  0  0  0  0  0  0  0
  -27.5380   -6.7190  -32.2850 N   0  0  0  0  0  0  0  0  0  0  0  0
  -27.6840   -8.8650  -31.2620 N   0  0  0  0  0  0  0  0  0  0  0  0
  -27.8024   -5.3830  -31.8813 C   0  0  0  0  0  0  0  0  0  0  0  0
  -28.2367   -4.9275  -30.7486 C   0  0  0  0  0  0  0  0  0  0  0  0
  -28.4949   -5.9207  -29.7377 C   0  0  0  0  0  0  0  0  0  0  0  0
  1  2  2  3
  1  3  1  0
  2  4  1  0
  4  5  2  3
  5  6  1  0
M  END
>  <name>  (2) 
Car Nac Nd0 Car Car Car

>  <indices>  (2) 
[0, 1, 2]

>  <dummy>  (2) 
2

>  <tasks>  (2) 
probe_placing close_aromatic_ring close_aromatic_ring

>  <current_task>  (2) 
close_aromatic_ring

>  <prot_clashes>  (2) 
1

>  <NBS phar>  (2) 
0.2

>  <NBS_non-phar>  (2) 
0.8578974405924479

>  <NBS>  (2) 
1.057897440592448

>  <source_stage>  (2) 
scored

>  <source_iter>  (2) 
3

>  <source_parent_mol>  (2) 
1

>  <source_scenario>  (2) 
1 0 1

>  <source_rank_in_scored_call>  (2) 
1

>  <source_current_task>  (2) 
close_aromatic_ring

>  <scenario>  (2) 
1 0

>  <rotatable_bond_torsions>  (2) 
0,1,3,4

$$$$

     RDKit          3D

  6  5  0  0  0  0  0  0  0  0999 V2000
  -27.8640   -7.4760  -31.1990 C   0  0  0  0  0  0  0  0  0  0  0  0
  -27.5380   -6.7190  -32.2850 N   0  0  0  0  0  0  0  0  0  0  0  0
  -27.6840   -8.8650  -31.2620 N   0  0  0  0  0  0  0  0  0  0  0  0
  -27.8024   -5.3830  -31.8813 C   0  0  0  0  0  0  0  0  0  0  0  0
  -28.2367   -4.9275  -30.7486 C   0  0  0  0  0  0  0  0  0  0  0  0
  -28.5392   -5.7396  -29.6686 N   0  0  0  0  0  0  0  0  0  0  0  0
  1  2  2  3
  1  3  1  0
  2  4  1  0
  4  5  2  3
  5  6  1  0
M  END
>  <name>  (3) 
Car Nac Nd0 Car Car Nd0

>  <indices>  (3) 
[0, 1, 2]

>  <dummy>  (3) 
2

>  <tasks>  (3) 
probe_placing close_aromatic_ring close_aromatic_ring

>  <current_task>  (3) 
close_aromatic_ring

>  <prot_clashes>  (3) 
0

>  <NBS phar>  (3) 
0.2

>  <NBS_non-phar>  (3) 
0.7488492329915365

>  <NBS>  (3) 
0.9488492329915366

>  <source_stage>  (3) 
scored

>  <source_iter>  (3) 
3

>  <source_parent_mol>  (3) 
1

>  <source_scenario>  (3) 
1 0 1

>  <source_rank_in_scored_call>  (3) 
2

>  <source_current_task>  (3) 
close_aromatic_ring

>  <scenario>  (3) 
1 0

>  <rotatable_bond_torsions>  (3) 
0,1,3,4

$$$$

     RDKit          3D

  6  5  0  0  0  0  0  0  0  0999 V2000
  -27.7490   -7.4640  -31.6620 C   0  0  0  0  0  0  0  0  0  0  0  0
  -27.6880   -6.7690  -32.8330 N   0  0  0  0  0  0  0  0  0  0  0  0
  -27.3130   -8.7960  -31.6400 N   0  0  0  0  0  0  0  0  0  0  0  0
  -28.1610   -5.4710  -32.5030 C   0  0  0  0  0  0  0  0  0  0  0  0
  -28.5560   -4.9950  -31.3650 C   0  0  0  0  0  0  0  0  0  0  0  0
  -28.7110   -5.6790  -30.0280 C   0  0  0  0  0  0  0  0  0  0  0  0
  1  2  2  3
  1  3  1  0
  2  4  1  0
  4  5  2  3
  5  6  1  0
M  END
>  <name>  (4) 
Car Nac Nd0 Car Car Car

>  <indices>  (4) 
[0, 1, 2]

>  <dummy>  (4) 
2

>  <tasks>  (4) 
probe_placing close_aromatic_ring close_aromatic_ring

>  <current_task>  (4) 
close_aromatic_ring

>  <prot_clashes>  (4) 
2

>  <NBS phar>  (4) 
0.2

>  <NBS_non-phar>  (4) 
0.6665836572647095

>  <NBS>  (4) 
0.8665836572647094

>  <source_stage>  (4) 
scored

>  <source_iter>  (4) 
3

>  <source_parent_mol>  (4) 
1

>  <source_scenario>  (4) 
1 0 1

>  <source_rank_in_scored_call>  (4) 
3

>  <source_current_task>  (4) 
close_aromatic_ring

>  <scenario>  (4) 
1 0

>  <rotatable_bond_torsions>  (4) 
0,1,3,4

$$$$

     RDKit          3D

  6  5  0  0  0  0  0  0  0  0999 V2000
  -27.7820   -7.4490  -31.7370 C   0  0  0  0  0  0  0  0  0  0  0  0
  -27.6900   -6.7050  -32.8760 N   0  0  0  0  0  0  0  0  0  0  0  0
  -27.3650   -8.7870  -31.7650 N   0  0  0  0  0  0  0  0  0  0  0  0
  -28.1510   -5.4160  -32.4980 C   0  0  0  0  0  0  0  0  0  0  0  0
  -28.5600   -4.9840  -31.3470 C   0  0  0  0  0  0  0  0  0  0  0  0
  -28.5500   -5.9520  -30.2810 C   0  0  0  0  0  0  0  0  0  0  0  0
  1  2  2  3
  1  3  1  0
  2  4  1  0
  4  5  2  3
  5  6  1  0
M  END
>  <name>  (5) 
Car Nac Nd0 Car Car Car

>  <indices>  (5) 
[0, 1, 2]

>  <dummy>  (5) 
2

>  <tasks>  (5) 
probe_placing close_aromatic_ring close_aromatic_ring

>  <current_task>  (5) 
close_aromatic_ring

>  <prot_clashes>  (5) 
1

>  <NBS phar>  (5) 
0.2

>  <NBS_non-phar>  (5) 
0.6467415889104208

>  <NBS>  (5) 
0.8467415889104208

>  <source_stage>  (5) 
scored

>  <source_iter>  (5) 
3

>  <source_parent_mol>  (5) 
1

>  <source_scenario>  (5) 
1 0 1

>  <source_rank_in_scored_call>  (5) 
4

>  <source_current_task>  (5) 
close_aromatic_ring

>  <scenario>  (5) 
1 0

>  <rotatable_bond_torsions>  (5) 
0,1,3,4

$$$$

     RDKit          3D

  6  5  0  0  0  0  0  0  0  0999 V2000
  -27.9020   -7.3130  -31.7550 C   0  0  0  0  0  0  0  0  0  0  0  0
  -27.6850   -6.5850  -32.8870 N   0  0  0  0  0  0  0  0  0  0  0  0
  -27.6810   -8.6970  -31.7850 N   0  0  0  0  0  0  0  0  0  0  0  0
  -27.9620   -5.2450  -32.5090 C   0  0  0  0  0  0  0  0  0  0  0  0
  -28.3240   -4.7630  -31.3620 C   0  0  0  0  0  0  0  0  0  0  0  0
  -28.5160   -5.5450  -30.2360 N   0  0  0  0  0  0  0  0  0  0  0  0
  1  2  2  3
  1  3  1  0
  2  4  1  0
  4  5  2  3
  5  6  1  0
M  END
>  <name>  (6) 
Car Nac Nd0 Car Car Nd0

>  <indices>  (6) 
[0, 1, 2]

>  <dummy>  (6) 
2

>  <tasks>  (6) 
probe_placing close_aromatic_ring close_aromatic_ring

>  <current_task>  (6) 
close_aromatic_ring

>  <prot_clashes>  (6) 
1

>  <NBS phar>  (6) 
0.2

>  <NBS_non-phar>  (6) 
0.6410094896952311

>  <NBS>  (6) 
0.8410094896952311

>  <source_stage>  (6) 
scored

>  <source_iter>  (6) 
3

>  <source_parent_mol>  (6) 
1

>  <source_scenario>  (6) 
1 0 1

>  <source_rank_in_scored_call>  (6) 
5

>  <source_current_task>  (6) 
close_aromatic_ring

>  <scenario>  (6) 
1 0

>  <rotatable_bond_torsions>  (6) 
0,1,3,4

$$$$

     RDKit          3D

  7  7  0  0  0  0  0  0  0  0999 V2000
  -27.9544   -7.5786  -31.0885 C   0  0  0  0  0  0  0  0  0  0  0  0
  -27.6252   -6.6792  -32.0546 N   0  0  0  0  0  0  0  0  0  0  0  0
  -27.6840   -8.8650  -31.2620 N   0  0  0  0  0  0  0  0  0  0  0  0
  -27.7723   -5.3521  -31.8910 C   0  0  0  0  0  0  0  0  0  0  0  0
  -28.2774   -4.8775  -30.6967 C   0  0  0  0  0  0  0  0  0  0  0  0
  -28.6304   -5.7525  -29.6749 C   0  0  0  0  0  0  0  0  0  0  0  0
  -28.4669   -7.1072  -29.8753 C   0  0  0  0  0  0  0  0  0  0  0  0
  1  2  2  0
  1  3  1  0
  2  4  1  0
  4  5  2  0
  5  6  1  0
  6  7  2  0
  1  7  1  0
M  END
>  <name>  (1) 
Car Nac Nd0 Car Car Car Car

>  <indices>  (1) 
[0, 1, 2]

>  <dummy>  (1) 
2

>  <tasks>  (1) 
probe_placing close_aromatic_ring close_aromatic_ring close_aromatic_ring

>  <current_task>  (1) 
no_task

>  <prot_clashes>  (1) 
0

>  <NBS phar>  (1) 
0.2

>  <NBS_non-phar>  (1) 
0.781130313873291

>  <NBS>  (1) 
0.981130313873291

>  <source_stage>  (1) 
scored

>  <source_iter>  (1) 
4

>  <source_parent_mol>  (1) 
0

>  <source_scenario>  (1) 
1 0 1 0

>  <source_rank_in_scored_call>  (1) 
0

>  <source_current_task>  (1) 
close_aromatic_ring

>  <scenario>  (1) 
1 0 1

>  <rotatable_bond_torsions>  (1) 
0,1,3,4

$$$$

     RDKit          3D

  7  7  0  0  0  0  0  0  0  0999 V2000
  -27.6830   -7.4850  -31.5290 C   0  0  0  0  0  0  0  0  0  0  0  0
  -27.3190   -6.6180  -32.5130 N   0  0  0  0  0  0  0  0  0  0  0  0
  -27.2200   -8.7270  -31.5370 N   0  0  0  0  0  0  0  0  0  0  0  0
  -27.6660   -5.3190  -32.5000 C   0  0  0  0  0  0  0  0  0  0  0  0
  -28.4220   -4.8400  -31.4490 C   0  0  0  0  0  0  0  0  0  0  0  0
  -28.8230   -5.6820  -30.4170 C   0  0  0  0  0  0  0  0  0  0  0  0
  -28.4500   -7.0080  -30.4610 C   0  0  0  0  0  0  0  0  0  0  0  0
  1  2  2  0
  1  3  1  0
  1  7  1  0
  2  4  1  0
  4  5  2  0
  5  6  1  0
  6  7  2  0
M  END
>  <name>  (2) 
Car Nac Nd0 Car Car Car Car

>  <indices>  (2) 
[0, 1, 2]

>  <dummy>  (2) 
2

>  <tasks>  (2) 
probe_placing close_aromatic_ring close_aromatic_ring close_aromatic_ring

>  <current_task>  (2) 
no_task

>  <prot_clashes>  (2) 
1

>  <NBS phar>  (2) 
0.2

>  <NBS_non-phar>  (2) 
0.6800109318324498

>  <NBS>  (2) 
0.8800109318324498

>  <source_stage>  (2) 
scored

>  <source_iter>  (2) 
4

>  <source_parent_mol>  (2) 
0

>  <source_scenario>  (2) 
1 0 1 0

>  <source_rank_in_scored_call>  (2) 
1

>  <source_current_task>  (2) 
close_aromatic_ring

>  <scenario>  (2) 
1 0 1

>  <rotatable_bond_torsions>  (2) 
0,1,3,4

$$$$

     RDKit          3D

  8  8  0  0  0  0  0  0  0  0999 V2000
  -27.9544   -7.5786  -31.0885 C   0  0  0  0  0  0  0  0  0  0  0  0
  -27.6252   -6.6792  -32.0546 N   0  0  0  0  0  0  0  0  0  0  0  0
  -27.6840   -8.8650  -31.2620 N   0  0  0  0  0  0  0  0  0  0  0  0
  -27.7723   -5.3521  -31.8910 C   0  0  0  0  0  0  0  0  0  0  0  0
  -28.2774   -4.8775  -30.6967 C   0  0  0  0  0  0  0  0  0  0  0  0
  -28.6304   -5.7525  -29.6749 C   0  0  0  0  0  0  0  0  0  0  0  0
  -28.4669   -7.1072  -29.8753 C   0  0  0  0  0  0  0  0  0  0  0  0
  -28.0565   -9.4014  -29.9740 C   0  0  0  0  0  0  0  0  0  0  0  0
  1  2  2  0
  1  3  1  0
  2  4  1  0
  4  5  2  0
  5  6  1  0
  6  7  2  0
  1  7  1  0
  3  8  1  0
M  END
>  <name>  (1) 
Car Nac Nd0 Car Car Car Car Car

>  <indices>  (1) 
[0, 1, 2]

>  <tasks>  (1) 
probe_placing close_aromatic_ring close_aromatic_ring close_aromatic_ring close_aromatic_ring ring_built

>  <prot_clashes>  (1) 
1

>  <NBS phar>  (1) 
0.2

>  <NBS_non-phar>  (1) 
0.8053122758865356

>  <NBS>  (1) 
1.0053122758865356

>  <source_stage>  (1) 
scored

>  <source_iter>  (1) 
5

>  <source_parent_mol>  (1) 
0

>  <source_scenario>  (1) 
1 0 1 0 0

>  <source_rank_in_scored_call>  (1) 
0

>  <source_current_task>  (1) 
build_to_Nd0

>  <scenario>  (1) 
1 0 1 0

>  <initiate_ring_110>  (1) 


>  <current_task>  (1) 
close_aromatic_ring

$$$$

     RDKit          3D

  8  8  0  0  0  0  0  0  0  0999 V2000
  -27.9544   -7.5786  -31.0885 C   0  0  0  0  0  0  0  0  0  0  0  0
  -27.6252   -6.6792  -32.0546 N   0  0  0  0  0  0  0  0  0  0  0  0
  -27.6840   -8.8650  -31.2620 N   0  0  0  0  0  0  0  0  0  0  0  0
  -27.7723   -5.3521  -31.8910 C   0  0  0  0  0  0  0  0  0  0  0  0
  -28.2774   -4.8775  -30.6967 C   0  0  0  0  0  0  0  0  0  0  0  0
  -28.6304   -5.7525  -29.6749 C   0  0  0  0  0  0  0  0  0  0  0  0
  -28.4669   -7.1072  -29.8753 C   0  0  0  0  0  0  0  0  0  0  0  0
  -28.8046   -9.6905  -31.3453 C   0  0  0  0  0  0  0  0  0  0  0  0
  1  2  2  0
  1  3  1  0
  2  4  1  0
  4  5  2  0
  5  6  1  0
  6  7  2  0
  1  7  1  0
  3  8  1  0
M  END
>  <name>  (2) 
Car Nac Nd0 Car Car Car Car Car

>  <indices>  (2) 
[0, 1, 2]

>  <tasks>  (2) 
probe_placing close_aromatic_ring close_aromatic_ring close_aromatic_ring close_aromatic_ring ring_built

>  <prot_clashes>  (2) 
2

>  <NBS phar>  (2) 
0.2

>  <NBS_non-phar>  (2) 
0.7958453297615051

>  <NBS>  (2) 
0.9958453297615051

>  <source_stage>  (2) 
scored

>  <source_iter>  (2) 
5

>  <source_parent_mol>  (2) 
0

>  <source_scenario>  (2) 
1 0 1 0 0

>  <source_rank_in_scored_call>  (2) 
1

>  <source_current_task>  (2) 
build_to_Nd0

>  <scenario>  (2) 
1 0 1 0

>  <current_task>  (2) 
close_aromatic_ring

$$$$

     RDKit          3D

  8  8  0  0  0  0  0  0  0  0999 V2000
  -27.9544   -7.5786  -31.0885 C   0  0  0  0  0  0  0  0  0  0  0  0
  -27.6252   -6.6792  -32.0546 N   0  0  0  0  0  0  0  0  0  0  0  0
  -27.6840   -8.8650  -31.2620 N   0  0  0  0  0  0  0  0  0  0  0  0
  -27.7723   -5.3521  -31.8910 C   0  0  0  0  0  0  0  0  0  0  0  0
  -28.2774   -4.8775  -30.6967 C   0  0  0  0  0  0  0  0  0  0  0  0
  -28.6304   -5.7525  -29.6749 C   0  0  0  0  0  0  0  0  0  0  0  0
  -28.4669   -7.1072  -29.8753 C   0  0  0  0  0  0  0  0  0  0  0  0
  -28.0699   -9.8206  -30.3753 C   0  0  0  0  0  0  0  0  0  0  0  0
  1  2  2  0
  1  3  1  0
  2  4  1  0
  4  5  2  0
  5  6  1  0
  6  7  2  0
  1  7  1  0
  3  8  1  0
M  END
>  <name>  (3) 
Car Nac Nd0 Car Car Car Car Car

>  <indices>  (3) 
[0, 1, 2]

>  <tasks>  (3) 
probe_placing close_aromatic_ring close_aromatic_ring close_aromatic_ring close_aromatic_ring ring_built

>  <prot_clashes>  (3) 
1

>  <NBS phar>  (3) 
0.2

>  <NBS_non-phar>  (3) 
0.7957637906074524

>  <NBS>  (3) 
0.9957637906074523

>  <source_stage>  (3) 
scored

>  <source_iter>  (3) 
5

>  <source_parent_mol>  (3) 
0

>  <source_scenario>  (3) 
1 0 1 0 0

>  <source_rank_in_scored_call>  (3) 
2

>  <source_current_task>  (3) 
build_to_Nd0

>  <scenario>  (3) 
1 0 1 0

>  <current_task>  (3) 
close_aromatic_ring

$$$$

     RDKit          3D

  8  8  0  0  0  0  0  0  0  0999 V2000
  -27.9544   -7.5786  -31.0885 C   0  0  0  0  0  0  0  0  0  0  0  0
  -27.6252   -6.6792  -32.0546 N   0  0  0  0  0  0  0  0  0  0  0  0
  -27.6840   -8.8650  -31.2620 N   0  0  0  0  0  0  0  0  0  0  0  0
  -27.7723   -5.3521  -31.8910 C   0  0  0  0  0  0  0  0  0  0  0  0
  -28.2774   -4.8775  -30.6967 C   0  0  0  0  0  0  0  0  0  0  0  0
  -28.6304   -5.7525  -29.6749 C   0  0  0  0  0  0  0  0  0  0  0  0
  -28.4669   -7.1072  -29.8753 C   0  0  0  0  0  0  0  0  0  0  0  0
  -28.4577   -9.7167  -32.1581 C   0  0  0  0  0  0  0  0  0  0  0  0
  1  2  2  0
  1  3  1  0
  2  4  1  0
  4  5  2  0
  5  6  1  0
  6  7  2  0
  1  7  1  0
  3  8  1  0
M  END
>  <name>  (4) 
Car Nac Nd0 Car Car Car Car Car

>  <indices>  (4) 
[0, 1, 2]

>  <tasks>  (4) 
probe_placing close_aromatic_ring close_aromatic_ring close_aromatic_ring close_aromatic_ring ring_built

>  <prot_clashes>  (4) 
1

>  <NBS phar>  (4) 
0.2

>  <NBS_non-phar>  (4) 
0.791672945022583

>  <NBS>  (4) 
0.991672945022583

>  <source_stage>  (4) 
scored

>  <source_iter>  (4) 
5

>  <source_parent_mol>  (4) 
0

>  <source_scenario>  (4) 
1 0 1 0 0

>  <source_rank_in_scored_call>  (4) 
3

>  <source_current_task>  (4) 
build_to_Nd0

>  <scenario>  (4) 
1 0 1 0

>  <current_task>  (4) 
close_aromatic_ring

$$$$

     RDKit          3D

  8  8  0  0  0  0  0  0  0  0999 V2000
  -27.9544   -7.5786  -31.0885 C   0  0  0  0  0  0  0  0  0  0  0  0
  -27.6252   -6.6792  -32.0546 N   0  0  0  0  0  0  0  0  0  0  0  0
  -27.6840   -8.8650  -31.2620 N   0  0  0  0  0  0  0  0  0  0  0  0
  -27.7723   -5.3521  -31.8910 C   0  0  0  0  0  0  0  0  0  0  0  0
  -28.2774   -4.8775  -30.6967 C   0  0  0  0  0  0  0  0  0  0  0  0
  -28.6304   -5.7525  -29.6749 C   0  0  0  0  0  0  0  0  0  0  0  0
  -28.4669   -7.1072  -29.8753 C   0  0  0  0  0  0  0  0  0  0  0  0
  -27.8775   -9.7899  -30.2626 C   0  0  0  0  0  0  0  0  0  0  0  0
  1  2  2  0
  1  3  1  0
  2  4  1  0
  4  5  2  0
  5  6  1  0
  6  7  2  0
  1  7  1  0
  3  8  1  0
M  END
>  <name>  (5) 
Car Nac Nd0 Car Car Car Car Car

>  <indices>  (5) 
[0, 1, 2]

>  <tasks>  (5) 
probe_placing close_aromatic_ring close_aromatic_ring close_aromatic_ring close_aromatic_ring ring_built

>  <prot_clashes>  (5) 
3

>  <NBS phar>  (5) 
0.2

>  <NBS_non-phar>  (5) 
0.7901164293289185

>  <NBS>  (5) 
0.9901164293289184

>  <source_stage>  (5) 
scored

>  <source_iter>  (5) 
5

>  <source_parent_mol>  (5) 
0

>  <source_scenario>  (5) 
1 0 1 0 0

>  <source_rank_in_scored_call>  (5) 
4

>  <source_current_task>  (5) 
build_to_Nd0

>  <scenario>  (5) 
1 0 1 0

>  <current_task>  (5) 
close_aromatic_ring

$$$$

     RDKit          3D

  8  8  0  0  0  0  0  0  0  0999 V2000
  -27.9280   -7.3450  -31.6770 C   0  0  0  0  0  0  0  0  0  0  0  0
  -27.3350   -6.4450  -32.5080 N   0  0  0  0  0  0  0  0  0  0  0  0
  -27.6580   -8.6370  -31.8000 N   0  0  0  0  0  0  0  0  0  0  0  0
  -27.4830   -5.1160  -32.3620 C   0  0  0  0  0  0  0  0  0  0  0  0
  -28.2680   -4.6400  -31.3310 C   0  0  0  0  0  0  0  0  0  0  0  0
  -28.8980   -5.5150  -30.4530 C   0  0  0  0  0  0  0  0  0  0  0  0
  -28.7260   -6.8710  -30.6300 C   0  0  0  0  0  0  0  0  0  0  0  0
  -28.3670   -9.1750  -30.6630 C   0  0  0  0  0  0  0  0  0  0  0  0
  1  2  2  0
  1  3  1  0
  1  7  1  0
  2  4  1  0
  3  8  1  0
  4  5  2  0
  5  6  1  0
  6  7  2  0
M  END
>  <name>  (6) 
Car Nac Nd0 Car Car Car Car Car

>  <indices>  (6) 
[0, 1, 2]

>  <tasks>  (6) 
probe_placing close_aromatic_ring close_aromatic_ring close_aromatic_ring close_aromatic_ring ring_built

>  <prot_clashes>  (6) 
1

>  <NBS phar>  (6) 
0.22000000000000003

>  <NBS_non-phar>  (6) 
0.7131292223930359

>  <NBS>  (6) 
0.9331292223930359

>  <source_stage>  (6) 
scored

>  <source_iter>  (6) 
5

>  <source_parent_mol>  (6) 
0

>  <source_scenario>  (6) 
1 0 1 0 0

>  <source_rank_in_scored_call>  (6) 
5

>  <source_current_task>  (6) 
build_to_Nd0

>  <scenario>  (6) 
1 0 1 0

>  <initiate_ring_110>  (6) 


>  <current_task>  (6) 
close_aromatic_ring

$$$$

     RDKit          3D

  8  8  0  0  0  0  0  0  0  0999 V2000
  -27.9544   -7.5786  -31.0885 C   0  0  0  0  0  0  0  0  0  0  0  0
  -27.6252   -6.6792  -32.0546 N   0  0  0  0  0  0  0  0  0  0  0  0
  -27.6840   -8.8650  -31.2620 N   0  0  0  0  0  0  0  0  0  0  0  0
  -27.7723   -5.3521  -31.8910 C   0  0  0  0  0  0  0  0  0  0  0  0
  -28.2774   -4.8775  -30.6967 C   0  0  0  0  0  0  0  0  0  0  0  0
  -28.6304   -5.7525  -29.6749 C   0  0  0  0  0  0  0  0  0  0  0  0
  -28.4669   -7.1072  -29.8753 C   0  0  0  0  0  0  0  0  0  0  0  0
  -26.6956   -9.5358  -30.6784 C   0  0  0  0  0  0  0  0  0  0  0  0
  1  2  2  0
  1  3  1  0
  2  4  1  0
  4  5  2  0
  5  6  1  0
  6  7  2  0
  1  7  1  0
  3  8  1  0
M  END
>  <name>  (7) 
Car Nac Nd0 Car Car Car Car Car

>  <indices>  (7) 
[0, 1, 2]

>  <tasks>  (7) 
probe_placing close_aromatic_ring close_aromatic_ring close_aromatic_ring close_aromatic_ring ring_built

>  <prot_clashes>  (7) 
7

>  <NBS phar>  (7) 
0.2

>  <NBS_non-phar>  (7) 
0.6837513446807861

>  <NBS>  (7) 
0.8837513446807861

>  <source_stage>  (7) 
scored

>  <source_iter>  (7) 
5

>  <source_parent_mol>  (7) 
0

>  <source_scenario>  (7) 
1 0 1 0 0

>  <source_rank_in_scored_call>  (7) 
6

>  <source_current_task>  (7) 
build_to_Nd0

>  <scenario>  (7) 
1 0 1 0

>  <current_task>  (7) 
close_aromatic_ring

$$$$

     RDKit          3D

  8  8  0  0  0  0  0  0  0  0999 V2000
  -27.9544   -7.5786  -31.0885 C   0  0  0  0  0  0  0  0  0  0  0  0
  -27.6252   -6.6792  -32.0546 N   0  0  0  0  0  0  0  0  0  0  0  0
  -27.6840   -8.8650  -31.2620 N   0  0  0  0  0  0  0  0  0  0  0  0
  -27.7723   -5.3521  -31.8910 C   0  0  0  0  0  0  0  0  0  0  0  0
  -28.2774   -4.8775  -30.6967 C   0  0  0  0  0  0  0  0  0  0  0  0
  -28.6304   -5.7525  -29.6749 C   0  0  0  0  0  0  0  0  0  0  0  0
  -28.4669   -7.1072  -29.8753 C   0  0  0  0  0  0  0  0  0  0  0  0
  -27.7306   -9.6493  -32.4408 C   0  0  0  0  0  0  0  0  0  0  0  0
  1  2  2  0
  1  3  1  0
  2  4  1  0
  4  5  2  0
  5  6  1  0
  6  7  2  0
  1  7  1  0
  3  8  1  0
M  END
>  <name>  (8) 
Car Nac Nd0 Car Car Car Car Car

>  <indices>  (8) 
[0, 1, 2]

>  <tasks>  (8) 
probe_placing close_aromatic_ring close_aromatic_ring close_aromatic_ring close_aromatic_ring ring_built

>  <prot_clashes>  (8) 
3

>  <NBS phar>  (8) 
0.2

>  <NBS_non-phar>  (8) 
0.6837314367294312

>  <NBS>  (8) 
0.8837314367294311

>  <source_stage>  (8) 
scored

>  <source_iter>  (8) 
5

>  <source_parent_mol>  (8) 
0

>  <source_scenario>  (8) 
1 0 1 0 0

>  <source_rank_in_scored_call>  (8) 
7

>  <source_current_task>  (8) 
build_to_Nd0

>  <scenario>  (8) 
1 0 1 0

>  <current_task>  (8) 
close_aromatic_ring

$$$$

     RDKit          3D

  8  8  0  0  0  0  0  0  0  0999 V2000
  -27.9544   -7.5786  -31.0885 C   0  0  0  0  0  0  0  0  0  0  0  0
  -27.6252   -6.6792  -32.0546 N   0  0  0  0  0  0  0  0  0  0  0  0
  -27.6840   -8.8650  -31.2620 N   0  0  0  0  0  0  0  0  0  0  0  0
  -27.7723   -5.3521  -31.8910 C   0  0  0  0  0  0  0  0  0  0  0  0
  -28.2774   -4.8775  -30.6967 C   0  0  0  0  0  0  0  0  0  0  0  0
  -28.6304   -5.7525  -29.6749 C   0  0  0  0  0  0  0  0  0  0  0  0
  -28.4669   -7.1072  -29.8753 C   0  0  0  0  0  0  0  0  0  0  0  0
  -26.4388   -9.3138  -31.3828 C   0  0  0  0  0  0  0  0  0  0  0  0
  1  2  2  0
  1  3  1  0
  2  4  1  0
  4  5  2  0
  5  6  1  0
  6  7  2  0
  1  7  1  0
  3  8  1  0
M  END
>  <name>  (9) 
Car Nac Nd0 Car Car Car Car Car

>  <indices>  (9) 
[0, 1, 2]

>  <tasks>  (9) 
probe_placing close_aromatic_ring close_aromatic_ring close_aromatic_ring close_aromatic_ring ring_built

>  <prot_clashes>  (9) 
7

>  <NBS phar>  (9) 
0.2

>  <NBS_non-phar>  (9) 
0.6835518479347229

>  <NBS>  (9) 
0.8835518479347229

>  <source_stage>  (9) 
scored

>  <source_iter>  (9) 
5

>  <source_parent_mol>  (9) 
0

>  <source_scenario>  (9) 
1 0 1 0 0

>  <source_rank_in_scored_call>  (9) 
8

>  <source_current_task>  (9) 
build_to_Nd0

>  <scenario>  (9) 
1 0 1 0

>  <current_task>  (9) 
close_aromatic_ring

$$$$

     RDKit          3D

  8  8  0  0  0  0  0  0  0  0999 V2000
  -27.9544   -7.5786  -31.0885 C   0  0  0  0  0  0  0  0  0  0  0  0
  -27.6252   -6.6792  -32.0546 N   0  0  0  0  0  0  0  0  0  0  0  0
  -27.6840   -8.8650  -31.2620 N   0  0  0  0  0  0  0  0  0  0  0  0
  -27.7723   -5.3521  -31.8910 C   0  0  0  0  0  0  0  0  0  0  0  0
  -28.2774   -4.8775  -30.6967 C   0  0  0  0  0  0  0  0  0  0  0  0
  -28.6304   -5.7525  -29.6749 C   0  0  0  0  0  0  0  0  0  0  0  0
  -28.4669   -7.1072  -29.8753 C   0  0  0  0  0  0  0  0  0  0  0  0
  -27.2312   -9.4011  -32.4013 C   0  0  0  0  0  0  0  0  0  0  0  0
  1  2  2  0
  1  3  1  0
  2  4  1  0
  4  5  2  0
  5  6  1  0
  6  7  2  0
  1  7  1  0
  3  8  1  0
M  END
>  <name>  (10) 
Car Nac Nd0 Car Car Car Car Car

>  <indices>  (10) 
[0, 1, 2]

>  <tasks>  (10) 
probe_placing close_aromatic_ring close_aromatic_ring close_aromatic_ring close_aromatic_ring ring_built

>  <prot_clashes>  (10) 
3

>  <NBS phar>  (10) 
0.2

>  <NBS_non-phar>  (10) 
0.683498740196228

>  <NBS>  (10) 
0.883498740196228

>  <source_stage>  (10) 
scored

>  <source_iter>  (10) 
5

>  <source_parent_mol>  (10) 
0

>  <source_scenario>  (10) 
1 0 1 0 0

>  <source_rank_in_scored_call>  (10) 
9

>  <source_current_task>  (10) 
build_to_Nd0

>  <scenario>  (10) 
1 0 1 0

>  <current_task>  (10) 
close_aromatic_ring

$$$$

     RDKit          3D

  8  8  0  0  0  0  0  0  0  0999 V2000
  -27.9544   -7.5786  -31.0885 C   0  0  0  0  0  0  0  0  0  0  0  0
  -27.6252   -6.6792  -32.0546 N   0  0  0  0  0  0  0  0  0  0  0  0
  -27.6840   -8.8650  -31.2620 N   0  0  0  0  0  0  0  0  0  0  0  0
  -27.7723   -5.3521  -31.8910 C   0  0  0  0  0  0  0  0  0  0  0  0
  -28.2774   -4.8775  -30.6967 C   0  0  0  0  0  0  0  0  0  0  0  0
  -28.6304   -5.7525  -29.6749 C   0  0  0  0  0  0  0  0  0  0  0  0
  -28.4669   -7.1072  -29.8753 C   0  0  0  0  0  0  0  0  0  0  0  0
  -26.3242   -9.5358  -30.9620 C   0  0  0  0  0  0  0  0  0  0  0  0
  1  2  2  0
  1  3  1  0
  2  4  1  0
  4  5  2  0
  5  6  1  0
  6  7  2  0
  1  7  1  0
  3  8  1  0
M  END
>  <name>  (11) 
Car Nac Nd0 Car Car Car Car Car

>  <indices>  (11) 
[0, 1, 2]

>  <tasks>  (11) 
probe_placing close_aromatic_ring close_aromatic_ring close_aromatic_ring close_aromatic_ring ring_built

>  <prot_clashes>  (11) 
8

>  <NBS phar>  (11) 
0.2

>  <NBS_non-phar>  (11) 
0.6834896802902222

>  <NBS>  (11) 
0.8834896802902221

>  <source_stage>  (11) 
scored

>  <source_iter>  (11) 
5

>  <source_parent_mol>  (11) 
0

>  <source_scenario>  (11) 
1 0 1 0 0

>  <source_rank_in_scored_call>  (11) 
10

>  <source_current_task>  (11) 
build_to_Nd0

>  <scenario>  (11) 
1 0 1 0

>  <current_task>  (11) 
close_aromatic_ring

$$$$

     RDKit          3D

  8  8  0  0  0  0  0  0  0  0999 V2000
  -27.9910   -7.5120  -31.6030 C   0  0  0  0  0  0  0  0  0  0  0  0
  -27.6120   -6.6630  -32.5970 N   0  0  0  0  0  0  0  0  0  0  0  0
  -27.6880   -8.8000  -31.6820 N   0  0  0  0  0  0  0  0  0  0  0  0
  -27.7930   -5.3320  -32.5220 C   0  0  0  0  0  0  0  0  0  0  0  0
  -28.3860   -4.8000  -31.3950 C   0  0  0  0  0  0  0  0  0  0  0  0
  -28.7930   -5.6220  -30.3490 C   0  0  0  0  0  0  0  0  0  0  0  0
  -28.5940   -6.9810  -30.4570 C   0  0  0  0  0  0  0  0  0  0  0  0
  -28.7860   -9.6530  -31.7910 C   0  0  0  0  0  0  0  0  0  0  0  0
  1  2  2  0
  1  3  1  0
  1  7  1  0
  2  4  1  0
  3  8  1  0
  4  5  2  0
  5  6  1  0
  6  7  2  0
M  END
>  <name>  (12) 
Car Nac Nd0 Car Car Car Car Car

>  <indices>  (12) 
[0, 1, 2]

>  <tasks>  (12) 
probe_placing close_aromatic_ring close_aromatic_ring close_aromatic_ring close_aromatic_ring ring_built

>  <prot_clashes>  (12) 
1

>  <NBS phar>  (12) 
0.2

>  <NBS_non-phar>  (12) 
0.6622226238250732

>  <NBS>  (12) 
0.8622226238250732

>  <source_stage>  (12) 
scored

>  <source_iter>  (12) 
5

>  <source_parent_mol>  (12) 
0

>  <source_scenario>  (12) 
1 0 1 0 0

>  <source_rank_in_scored_call>  (12) 
11

>  <source_current_task>  (12) 
build_to_Nd0

>  <scenario>  (12) 
1 0 1 0

>  <current_task>  (12) 
close_aromatic_ring

$$$$

     RDKit          3D

  8  8  0  0  0  0  0  0  0  0999 V2000
  -27.7540   -7.6110  -31.3880 C   0  0  0  0  0  0  0  0  0  0  0  0
  -27.6470   -6.8520  -32.5130 N   0  0  0  0  0  0  0  0  0  0  0  0
  -27.3130   -8.8610  -31.3890 N   0  0  0  0  0  0  0  0  0  0  0  0
  -27.9750   -5.5480  -32.5420 C   0  0  0  0  0  0  0  0  0  0  0  0
  -28.4390   -4.9490  -31.3880 C   0  0  0  0  0  0  0  0  0  0  0  0
  -28.5690   -5.6780  -30.2100 C   0  0  0  0  0  0  0  0  0  0  0  0
  -28.2250   -7.0130  -30.2140 C   0  0  0  0  0  0  0  0  0  0  0  0
  -28.0260   -9.9470  -32.0520 C   0  0  0  0  0  0  0  0  0  0  0  0
  1  2  2  0
  1  3  1  0
  1  7  1  0
  2  4  1  0
  3  8  1  0
  4  5  2  0
  5  6  1  0
  6  7  2  0
M  END
>  <name>  (13) 
Car Nac Nd0 Car Car Car Car Car

>  <indices>  (13) 
[0, 1, 2]

>  <tasks>  (13) 
probe_placing close_aromatic_ring close_aromatic_ring close_aromatic_ring close_aromatic_ring ring_built

>  <prot_clashes>  (13) 
3

>  <NBS phar>  (13) 
0.22000000000000003

>  <NBS_non-phar>  (13) 
0.6206707954406738

>  <NBS>  (13) 
0.8406707954406738

>  <source_stage>  (13) 
scored

>  <source_iter>  (13) 
5

>  <source_parent_mol>  (13) 
0

>  <source_scenario>  (13) 
1 0 1 0 0

>  <source_rank_in_scored_call>  (13) 
12

>  <source_current_task>  (13) 
build_to_Nd0

>  <scenario>  (13) 
1 0 1 0

>  <current_task>  (13) 
close_aromatic_ring

$$$$

     RDKit          3D

  8  8  0  0  0  0  0  0  0  0999 V2000
  -28.1090   -7.2860  -31.8250 C   0  0  0  0  0  0  0  0  0  0  0  0
  -27.3780   -6.3690  -32.5170 N   0  0  0  0  0  0  0  0  0  0  0  0
  -28.0190   -8.5720  -32.1320 N   0  0  0  0  0  0  0  0  0  0  0  0
  -27.3420   -5.0670  -32.1820 C   0  0  0  0  0  0  0  0  0  0  0  0
  -28.0740   -4.6370  -31.0940 C   0  0  0  0  0  0  0  0  0  0  0  0
  -28.8380   -5.5300  -30.3510 C   0  0  0  0  0  0  0  0  0  0  0  0
  -28.8540   -6.8580  -30.7210 C   0  0  0  0  0  0  0  0  0  0  0  0
  -28.6350   -9.5440  -31.3790 C   0  0  0  0  0  0  0  0  0  0  0  0
  1  2  2  0
  1  3  1  0
  1  7  1  0
  2  4  1  0
  3  8  1  0
  4  5  2  0
  5  6  1  0
  6  7  2  0
M  END
>  <name>  (14) 
Car Nac Nd0 Car Car Car Car Car

>  <indices>  (14) 
[0, 1, 2]

>  <tasks>  (14) 
probe_placing close_aromatic_ring close_aromatic_ring close_aromatic_ring close_aromatic_ring ring_built

>  <prot_clashes>  (14) 
3

>  <NBS phar>  (14) 
0.1

>  <NBS_non-phar>  (14) 
0.7308252453804016

>  <NBS>  (14) 
0.8308252453804016

>  <source_stage>  (14) 
scored

>  <source_iter>  (14) 
5

>  <source_parent_mol>  (14) 
0

>  <source_scenario>  (14) 
1 0 1 0 0

>  <source_rank_in_scored_call>  (14) 
13

>  <source_current_task>  (14) 
build_to_Nd0

>  <scenario>  (14) 
1 0 1 0

>  <current_task>  (14) 
close_aromatic_ring

$$$$

     RDKit          3D

  8  8  0  0  0  0  0  0  0  0999 V2000
  -28.1520   -7.0200  -31.8740 C   0  0  0  0  0  0  0  0  0  0  0  0
  -27.3250   -6.1490  -32.5140 N   0  0  0  0  0  0  0  0  0  0  0  0
  -28.0630   -8.3190  -32.1210 N   0  0  0  0  0  0  0  0  0  0  0  0
  -27.2920   -4.8350  -32.2250 C   0  0  0  0  0  0  0  0  0  0  0  0
  -28.1290   -4.3450  -31.2430 C   0  0  0  0  0  0  0  0  0  0  0  0
  -28.9950   -5.1910  -30.5580 C   0  0  0  0  0  0  0  0  0  0  0  0
  -29.0040   -6.5320  -30.8780 C   0  0  0  0  0  0  0  0  0  0  0  0
  -27.0630   -9.2850  -31.4450 C   0  0  0  0  0  0  0  0  0  0  0  0
  1  2  2  0
  1  3  1  0
  1  7  1  0
  2  4  1  0
  3  8  1  0
  4  5  2  0
  5  6  1  0
  6  7  2  0
M  END
>  <name>  (15) 
Car Nac Nd0 Car Car Car Car Car

>  <indices>  (15) 
[0, 1, 2]

>  <tasks>  (15) 
probe_placing close_aromatic_ring close_aromatic_ring close_aromatic_ring close_aromatic_ring ring_built

>  <prot_clashes>  (15) 
5

>  <NBS phar>  (15) 
0.12

>  <NBS_non-phar>  (15) 
0.660580575466156

>  <NBS>  (15) 
0.780580575466156

>  <source_stage>  (15) 
scored

>  <source_iter>  (15) 
5

>  <source_parent_mol>  (15) 
0

>  <source_scenario>  (15) 
1 0 1 0 0

>  <source_rank_in_scored_call>  (15) 
14

>  <source_current_task>  (15) 
build_to_Nd0

>  <scenario>  (15) 
1 0 1 0

>  <current_task>  (15) 
close_aromatic_ring

$$$$

     RDKit          3D

  8  8  0  0  0  0  0  0  0  0999 V2000
  -27.9500   -7.4120  -31.7220 C   0  0  0  0  0  0  0  0  0  0  0  0
  -27.3350   -6.4910  -32.5140 N   0  0  0  0  0  0  0  0  0  0  0  0
  -27.6500   -8.6970  -31.8470 N   0  0  0  0  0  0  0  0  0  0  0  0
  -27.5150   -5.1660  -32.3600 C   0  0  0  0  0  0  0  0  0  0  0  0
  -28.3560   -4.7180  -31.3620 C   0  0  0  0  0  0  0  0  0  0  0  0
  -29.0110   -5.6150  -30.5250 C   0  0  0  0  0  0  0  0  0  0  0  0
  -28.8050   -6.9650  -30.7090 C   0  0  0  0  0  0  0  0  0  0  0  0
  -28.2960   -9.6700  -31.1510 C   0  0  0  0  0  0  0  0  0  0  0  0
  1  2  2  0
  1  3  1  0
  1  7  1  0
  2  4  1  0
  3  8  1  0
  4  5  2  0
  5  6  1  0
  6  7  2  0
M  END
>  <name>  (16) 
Car Nac Nd0 Car Car Car Car Car

>  <indices>  (16) 
[0, 1, 2]

>  <tasks>  (16) 
probe_placing close_aromatic_ring close_aromatic_ring close_aromatic_ring close_aromatic_ring ring_built

>  <prot_clashes>  (16) 
0

>  <NBS phar>  (16) 
0.1

>  <NBS_non-phar>  (16) 
0.6538351774215698

>  <NBS>  (16) 
0.7538351774215698

>  <source_stage>  (16) 
scored

>  <source_iter>  (16) 
5

>  <source_parent_mol>  (16) 
0

>  <source_scenario>  (16) 
1 0 1 0 0

>  <source_rank_in_scored_call>  (16) 
15

>  <source_current_task>  (16) 
build_to_Nd0

>  <scenario>  (16) 
1 0 1 0

>  <current_task>  (16) 
close_aromatic_ring

$$$$

     RDKit          3D

  8  8  0  0  0  0  0  0  0  0999 V2000
  -28.2130   -7.8340  -31.5460 C   0  0  0  0  0  0  0  0  0  0  0  0
  -27.6740   -7.0970  -32.5560 N   0  0  0  0  0  0  0  0  0  0  0  0
  -28.1000   -9.1550  -31.5580 N   0  0  0  0  0  0  0  0  0  0  0  0
  -27.6590   -5.7520  -32.5450 C   0  0  0  0  0  0  0  0  0  0  0  0
  -28.2110   -5.0870  -31.4680 C   0  0  0  0  0  0  0  0  0  0  0  0
  -28.7750   -5.7900  -30.4090 C   0  0  0  0  0  0  0  0  0  0  0  0
  -28.7750   -7.1680  -30.4520 C   0  0  0  0  0  0  0  0  0  0  0  0
  -27.6130   -9.8690  -32.5800 C   0  0  0  0  0  0  0  0  0  0  0  0
  1  2  2  0
  1  3  1  0
  1  7  1  0
  2  4  1  0
  3  8  1  0
  4  5  2  0
  5  6  1  0
  6  7  2  0
M  END
>  <name>  (17) 
Car Nac Nd0 Car Car Car Car Car

>  <indices>  (17) 
[0, 1, 2]

>  <tasks>  (17) 
probe_placing close_aromatic_ring close_aromatic_ring close_aromatic_ring close_aromatic_ring ring_built

>  <prot_clashes>  (17) 
5

>  <NBS phar>  (17) 
0.2

>  <NBS_non-phar>  (17) 
0.5002586841583252

>  <NBS>  (17) 
0.7002586841583252

>  <source_stage>  (17) 
scored

>  <source_iter>  (17) 
5

>  <source_parent_mol>  (17) 
0

>  <source_scenario>  (17) 
1 0 1 0 0

>  <source_rank_in_scored_call>  (17) 
16

>  <source_current_task>  (17) 
build_to_Nd0

>  <scenario>  (17) 
1 0 1 0

>  <current_task>  (17) 
close_aromatic_ring

$$$$

     RDKit          3D

  8  8  0  0  0  0  0  0  0  0999 V2000
  -27.9550   -7.8760  -31.4240 C   0  0  0  0  0  0  0  0  0  0  0  0
  -27.6830   -7.1390  -32.5370 N   0  0  0  0  0  0  0  0  0  0  0  0
  -27.6360   -9.1620  -31.3890 N   0  0  0  0  0  0  0  0  0  0  0  0
  -27.8810   -5.8100  -32.5930 C   0  0  0  0  0  0  0  0  0  0  0  0
  -28.3790   -5.1610  -31.4810 C   0  0  0  0  0  0  0  0  0  0  0  0
  -28.6740   -5.8640  -30.3180 C   0  0  0  0  0  0  0  0  0  0  0  0
  -28.4600   -7.2260  -30.2930 C   0  0  0  0  0  0  0  0  0  0  0  0
  -27.6760  -10.1340  -32.4180 C   0  0  0  0  0  0  0  0  0  0  0  0
  1  2  2  0
  1  3  1  0
  1  7  1  0
  2  4  1  0
  3  8  1  0
  4  5  2  0
  5  6  1  0
  6  7  2  0
M  END
>  <name>  (18) 
Car Nac Nd0 Car Car Car Car Car

>  <indices>  (18) 
[0, 1, 2]

>  <tasks>  (18) 
probe_placing close_aromatic_ring close_aromatic_ring close_aromatic_ring close_aromatic_ring ring_built

>  <prot_clashes>  (18) 
7

>  <NBS phar>  (18) 
0.2

>  <NBS_non-phar>  (18) 
0.49446871876716614

>  <NBS>  (18) 
0.6944687187671661

>  <source_stage>  (18) 
scored

>  <source_iter>  (18) 
5

>  <source_parent_mol>  (18) 
0

>  <source_scenario>  (18) 
1 0 1 0 0

>  <source_rank_in_scored_call>  (18) 
17

>  <source_current_task>  (18) 
build_to_Nd0

>  <scenario>  (18) 
1 0 1 0

>  <current_task>  (18) 
close_aromatic_ring

$$$$

     RDKit          3D

  8  8  0  0  0  0  0  0  0  0999 V2000
  -28.1300   -7.1960  -31.8620 C   0  0  0  0  0  0  0  0  0  0  0  0
  -27.3280   -6.3100  -32.5150 N   0  0  0  0  0  0  0  0  0  0  0  0
  -28.0520   -8.4890  -32.1420 N   0  0  0  0  0  0  0  0  0  0  0  0
  -27.2820   -5.0040  -32.1980 C   0  0  0  0  0  0  0  0  0  0  0  0
  -28.0780   -4.5360  -31.1720 C   0  0  0  0  0  0  0  0  0  0  0  0
  -28.9160   -5.3970  -30.4710 C   0  0  0  0  0  0  0  0  0  0  0  0
  -28.9400   -6.7300  -30.8210 C   0  0  0  0  0  0  0  0  0  0  0  0
  -27.4670   -9.4130  -31.3850 C   0  0  0  0  0  0  0  0  0  0  0  0
  1  2  2  0
  1  3  1  0
  1  7  1  0
  2  4  1  0
  3  8  1  0
  4  5  2  0
  5  6  1  0
  6  7  2  0
M  END
>  <name>  (19) 
Car Nac Nd0 Car Car Car Car Car

>  <indices>  (19) 
[0, 1, 2]

>  <tasks>  (19) 
probe_placing close_aromatic_ring close_aromatic_ring close_aromatic_ring close_aromatic_ring ring_built

>  <prot_clashes>  (19) 
4

>  <NBS phar>  (19) 
0.1

>  <NBS_non-phar>  (19) 
0.5939714908599854

>  <NBS>  (19) 
0.6939714908599853

>  <source_stage>  (19) 
scored

>  <source_iter>  (19) 
5

>  <source_parent_mol>  (19) 
0

>  <source_scenario>  (19) 
1 0 1 0 0

>  <source_rank_in_scored_call>  (19) 
18

>  <source_current_task>  (19) 
build_to_Nd0

>  <scenario>  (19) 
1 0 1 0

>  <current_task>  (19) 
close_aromatic_ring

$$$$

     RDKit          3D

  9 10  0  0  0  0  0  0  0  0999 V2000
  -27.8609   -7.5606  -31.1600 C   0  0  0  0  0  0  0  0  0  0  0  0
  -27.6012   -6.6215  -32.1138 N   0  0  0  0  0  0  0  0  0  0  0  0
  -27.7248   -8.9090  -31.1461 N   0  0  0  0  0  0  0  0  0  0  0  0
  -27.8300   -5.3151  -31.8693 C   0  0  0  0  0  0  0  0  0  0  0  0
  -28.3288   -4.9249  -30.6496 C   0  0  0  0  0  0  0  0  0  0  0  0
  -28.6041   -5.8580  -29.6557 C   0  0  0  0  0  0  0  0  0  0  0  0
  -28.3629   -7.1894  -29.9265 C   0  0  0  0  0  0  0  0  0  0  0  0
  -28.1245   -9.3941  -29.9460 C   0  0  0  0  0  0  0  0  0  0  0  0
  -28.5322   -8.3225  -29.1590 C   0  0  0  0  0  0  0  0  0  0  0  0
  1  2  2  0
  1  3  1  0
  2  4  1  0
  4  5  2  0
  5  6  1  0
  6  7  2  0
  1  7  1  0
  3  8  1  0
  8  9  2  0
  7  9  1  0
M  END
>  <name>  (1) 
Car Nac Nd0 Car Car Car Car Car Car

>  <indices>  (1) 
[0, 1, 2]

>  <tasks>  (1) 
probe_placing close_aromatic_ring close_aromatic_ring close_aromatic_ring close_aromatic_ring ring_built build_to_Nd0

>  <prot_clashes>  (1) 
0

>  <NBS phar>  (1) 
0.2

>  <NBS_non-phar>  (1) 
0.7751019795735677

>  <NBS>  (1) 
0.9751019795735678

>  <source_stage>  (1) 
scored

>  <source_iter>  (1) 
6

>  <source_parent_mol>  (1) 
0

>  <source_scenario>  (1) 
1 0 1 0 0 0

>  <source_rank_in_scored_call>  (1) 
0

>  <source_current_task>  (1) 
close_aromatic_ring

>  <scenario>  (1) 
1 0 1 0 0

>  <current_task>  (1) 
no_task

>  <rotatable_bond_torsions>  (1) 
1,0,2,7

$$$$

     RDKit          3D

  9 10  0  0  0  0  0  0  0  0999 V2000
  -27.8770   -7.4760  -31.8280 C   0  0  0  0  0  0  0  0  0  0  0  0
  -27.3550   -6.4080  -32.4960 N   0  0  0  0  0  0  0  0  0  0  0  0
  -27.7750   -8.8130  -32.0240 N   0  0  0  0  0  0  0  0  0  0  0  0
  -27.6160   -5.1490  -32.0860 C   0  0  0  0  0  0  0  0  0  0  0  0
  -28.4140   -4.9400  -30.9870 C   0  0  0  0  0  0  0  0  0  0  0  0
  -28.9600   -6.0080  -30.2830 C   0  0  0  0  0  0  0  0  0  0  0  0
  -28.6810   -7.2870  -30.7200 C   0  0  0  0  0  0  0  0  0  0  0  0
  -28.4880   -9.4670  -31.0760 C   0  0  0  0  0  0  0  0  0  0  0  0
  -29.0690   -8.5200  -30.2400 C   0  0  0  0  0  0  0  0  0  0  0  0
  1  2  2  0
  1  3  1  0
  1  7  1  0
  2  4  1  0
  3  8  1  0
  4  5  2  0
  5  6  1  0
  6  7  2  0
  7  9  1  0
  8  9  2  0
M  END
>  <name>  (2) 
Car Nac Nd0 Car Car Car Car Car Car

>  <indices>  (2) 
[0, 1, 2]

>  <tasks>  (2) 
probe_placing close_aromatic_ring close_aromatic_ring close_aromatic_ring close_aromatic_ring ring_built build_to_Nd0

>  <prot_clashes>  (2) 
1

>  <NBS phar>  (2) 
0.1

>  <NBS_non-phar>  (2) 
0.6738046540154351

>  <NBS>  (2) 
0.7738046540154351

>  <source_stage>  (2) 
scored

>  <source_iter>  (2) 
6

>  <source_parent_mol>  (2) 
0

>  <source_scenario>  (2) 
1 0 1 0 0 0

>  <source_rank_in_scored_call>  (2) 
1

>  <source_current_task>  (2) 
close_aromatic_ring

>  <scenario>  (2) 
1 0 1 0 0

>  <current_task>  (2) 
no_task

>  <rotatable_bond_torsions>  (2) 
1,0,2,7

$$$$

     RDKit          3D

 10 11  0  0  0  0  0  0  0  0999 V2000
  -27.8609   -7.5606  -31.1600 C   0  0  0  0  0  0  0  0  0  0  0  0
  -27.6012   -6.6215  -32.1138 N   0  0  0  0  0  0  0  0  0  0  0  0
  -27.7248   -8.9090  -31.1461 N   0  0  0  0  0  0  0  0  0  0  0  0
  -27.8300   -5.3151  -31.8693 C   0  0  0  0  0  0  0  0  0  0  0  0
  -28.3288   -4.9249  -30.6496 C   0  0  0  0  0  0  0  0  0  0  0  0
  -28.6041   -5.8580  -29.6557 C   0  0  0  0  0  0  0  0  0  0  0  0
  -28.3629   -7.1894  -29.9265 C   0  0  0  0  0  0  0  0  0  0  0  0
  -28.1245   -9.3941  -29.9460 C   0  0  0  0  0  0  0  0  0  0  0  0
  -28.5322   -8.3225  -29.1590 C   0  0  0  0  0  0  0  0  0  0  0  0
  -28.4694   -3.5583  -30.6566 N   0  0  0  0  0  0  0  0  0  0  0  0
  1  2  2  0
  1  3  1  0
  2  4  1  0
  4  5  2  0
  5  6  1  0
  6  7  2  0
  1  7  1  0
  3  8  1  0
  8  9  2  0
  7  9  1  0
  5 10  1  0
M  END
>  <name>  (1) 
Car Nac Nd0 Car Car Car Car Car Car Nd0

>  <indices>  (1) 
[0, 1, 2]

>  <tasks>  (1) 
probe_placing close_aromatic_ring close_aromatic_ring close_aromatic_ring close_aromatic_ring ring_built build_to_Nd0 close_aromatic_ring

>  <prot_clashes>  (1) 
0

>  <NBS phar>  (1) 
0.2

>  <NBS_non-phar>  (1) 
0.7226057052612305

>  <NBS>  (1) 
0.9226057052612304

>  <source_stage>  (1) 
scored

>  <source_iter>  (1) 
7

>  <source_parent_mol>  (1) 
0

>  <source_scenario>  (1) 
1 0 1 0 0 0 0

>  <source_rank_in_scored_call>  (1) 
0

>  <source_current_task>  (1) 
no_task

>  <scenario>  (1) 
1 0 1 0 0 0

>  <current_task>  (1) 
build_to_Nd0

>  <initiate_ring_bisect>  (1) 


$$$$

     RDKit          3D

 10 11  0  0  0  0  0  0  0  0999 V2000
  -27.8609   -7.5606  -31.1600 C   0  0  0  0  0  0  0  0  0  0  0  0
  -27.6012   -6.6215  -32.1138 N   0  0  0  0  0  0  0  0  0  0  0  0
  -27.7248   -8.9090  -31.1461 N   0  0  0  0  0  0  0  0  0  0  0  0
  -27.8300   -5.3151  -31.8693 C   0  0  0  0  0  0  0  0  0  0  0  0
  -28.3288   -4.9249  -30.6496 C   0  0  0  0  0  0  0  0  0  0  0  0
  -28.6041   -5.8580  -29.6557 C   0  0  0  0  0  0  0  0  0  0  0  0
  -28.3629   -7.1894  -29.9265 C   0  0  0  0  0  0  0  0  0  0  0  0
  -28.1245   -9.3941  -29.9460 C   0  0  0  0  0  0  0  0  0  0  0  0
  -28.5322   -8.3225  -29.1590 C   0  0  0  0  0  0  0  0  0  0  0  0
  -28.6401   -3.6761  -30.1690 N   0  0  0  0  0  0  0  0  0  0  0  0
  1  2  2  0
  1  3  1  0
  2  4  1  0
  4  5  2  0
  5  6  1  0
  6  7  2  0
  1  7  1  0
  3  8  1  0
  8  9  2  0
  7  9  1  0
  5 10  1  0
M  END
>  <name>  (2) 
Car Nac Nd0 Car Car Car Car Car Car Nd0

>  <indices>  (2) 
[0, 1, 2]

>  <tasks>  (2) 
probe_placing close_aromatic_ring close_aromatic_ring close_aromatic_ring close_aromatic_ring ring_built build_to_Nd0 close_aromatic_ring

>  <prot_clashes>  (2) 
0

>  <NBS phar>  (2) 
0.2

>  <NBS_non-phar>  (2) 
0.7187162399291992

>  <NBS>  (2) 
0.9187162399291993

>  <source_stage>  (2) 
scored

>  <source_iter>  (2) 
7

>  <source_parent_mol>  (2) 
0

>  <source_scenario>  (2) 
1 0 1 0 0 0 0

>  <source_rank_in_scored_call>  (2) 
1

>  <source_current_task>  (2) 
no_task

>  <scenario>  (2) 
1 0 1 0 0 0

>  <current_task>  (2) 
build_to_Nd0

>  <initiate_ring_bisect>  (2) 


$$$$

     RDKit          3D

 10 11  0  0  0  0  0  0  0  0999 V2000
  -27.8609   -7.5606  -31.1600 C   0  0  0  0  0  0  0  0  0  0  0  0
  -27.6012   -6.6215  -32.1138 N   0  0  0  0  0  0  0  0  0  0  0  0
  -27.7248   -8.9090  -31.1461 N   0  0  0  0  0  0  0  0  0  0  0  0
  -27.8300   -5.3151  -31.8693 C   0  0  0  0  0  0  0  0  0  0  0  0
  -28.3288   -4.9249  -30.6496 C   0  0  0  0  0  0  0  0  0  0  0  0
  -28.6041   -5.8580  -29.6557 C   0  0  0  0  0  0  0  0  0  0  0  0
  -28.3629   -7.1894  -29.9265 C   0  0  0  0  0  0  0  0  0  0  0  0
  -28.1245   -9.3941  -29.9460 C   0  0  0  0  0  0  0  0  0  0  0  0
  -28.5322   -8.3225  -29.1590 C   0  0  0  0  0  0  0  0  0  0  0  0
  -28.5591   -3.5921  -30.4083 N   0  0  0  0  0  0  0  0  0  0  0  0
  1  2  2  0
  1  3  1  0
  2  4  1  0
  4  5  2  0
  5  6  1  0
  6  7  2  0
  1  7  1  0
  3  8  1  0
  8  9  2  0
  7  9  1  0
  5 10  1  0
M  END
>  <name>  (3) 
Car Nac Nd0 Car Car Car Car Car Car Nd0

>  <indices>  (3) 
[0, 1, 2]

>  <tasks>  (3) 
probe_placing close_aromatic_ring close_aromatic_ring close_aromatic_ring close_aromatic_ring ring_built build_to_Nd0 close_aromatic_ring

>  <prot_clashes>  (3) 
0

>  <NBS phar>  (3) 
0.2

>  <NBS_non-phar>  (3) 
0.7146941661834717

>  <NBS>  (3) 
0.9146941661834718

>  <source_stage>  (3) 
scored

>  <source_iter>  (3) 
7

>  <source_parent_mol>  (3) 
0

>  <source_scenario>  (3) 
1 0 1 0 0 0 0

>  <source_rank_in_scored_call>  (3) 
2

>  <source_current_task>  (3) 
no_task

>  <scenario>  (3) 
1 0 1 0 0 0

>  <current_task>  (3) 
build_to_Nd0

$$$$

     RDKit          3D

 10 11  0  0  0  0  0  0  0  0999 V2000
  -27.9710   -7.0830  -32.0370 C   0  0  0  0  0  0  0  0  0  0  0  0
  -27.3720   -6.2940  -32.9730 N   0  0  0  0  0  0  0  0  0  0  0  0
  -28.1590   -8.4220  -31.9580 N   0  0  0  0  0  0  0  0  0  0  0  0
  -27.3180   -4.9550  -32.8090 C   0  0  0  0  0  0  0  0  0  0  0  0
  -27.8700   -4.3820  -31.6890 C   0  0  0  0  0  0  0  0  0  0  0  0
  -28.4870   -5.1590  -30.7150 C   0  0  0  0  0  0  0  0  0  0  0  0
  -28.5320   -6.5250  -30.9030 C   0  0  0  0  0  0  0  0  0  0  0  0
  -28.8190   -8.7220  -30.8130 C   0  0  0  0  0  0  0  0  0  0  0  0
  -29.0640   -7.5360  -30.1310 C   0  0  0  0  0  0  0  0  0  0  0  0
  -27.6820   -3.0220  -31.7630 N   0  0  0  0  0  0  0  0  0  0  0  0
  1  2  2  0
  1  3  1  0
  1  7  1  0
  2  4  1  0
  3  8  1  0
  4  5  2  0
  5 10  1  0
  5  6  1  0
  6  7  2  0
  7  9  1  0
  8  9  2  0
M  END
>  <name>  (4) 
Car Nac Nd0 Car Car Car Car Car Car Nd0

>  <indices>  (4) 
[0, 1, 2]

>  <tasks>  (4) 
probe_placing close_aromatic_ring close_aromatic_ring close_aromatic_ring close_aromatic_ring ring_built build_to_Nd0 close_aromatic_ring

>  <prot_clashes>  (4) 
4

>  <NBS phar>  (4) 
0.2

>  <NBS_non-phar>  (4) 
0.6119265556335449

>  <NBS>  (4) 
0.8119265556335449

>  <source_stage>  (4) 
scored

>  <source_iter>  (4) 
7

>  <source_parent_mol>  (4) 
0

>  <source_scenario>  (4) 
1 0 1 0 0 0 0

>  <source_rank_in_scored_call>  (4) 
3

>  <source_current_task>  (4) 
no_task

>  <scenario>  (4) 
1 0 1 0 0 0

>  <current_task>  (4) 
build_to_Nd0

>  <initiate_ring_bisect>  (4) 


$$$$

     RDKit          3D

 10 11  0  0  0  0  0  0  0  0999 V2000
  -28.0940   -7.2290  -32.0610 C   0  0  0  0  0  0  0  0  0  0  0  0
  -27.5750   -6.1660  -32.7390 N   0  0  0  0  0  0  0  0  0  0  0  0
  -28.1330   -8.5550  -32.3350 N   0  0  0  0  0  0  0  0  0  0  0  0
  -27.6720   -4.9180  -32.2350 C   0  0  0  0  0  0  0  0  0  0  0  0
  -28.2980   -4.7140  -31.0300 C   0  0  0  0  0  0  0  0  0  0  0  0
  -28.8370   -5.7770  -30.3130 C   0  0  0  0  0  0  0  0  0  0  0  0
  -28.7280   -7.0440  -30.8460 C   0  0  0  0  0  0  0  0  0  0  0  0
  -28.7700   -9.2080  -31.3330 C   0  0  0  0  0  0  0  0  0  0  0  0
  -29.1540   -8.2700  -30.3800 C   0  0  0  0  0  0  0  0  0  0  0  0
  -28.5190   -3.5580  -30.3210 N   0  0  0  0  0  0  0  0  0  0  0  0
  1  2  2  0
  1  3  1  0
  1  7  1  0
  2  4  1  0
  3  8  1  0
  4  5  2  0
  5 10  1  0
  5  6  1  0
  6  7  2  0
  7  9  1  0
  8  9  2  0
M  END
>  <name>  (5) 
Car Nac Nd0 Car Car Car Car Car Car Nd0

>  <indices>  (5) 
[0, 1, 2]

>  <tasks>  (5) 
probe_placing close_aromatic_ring close_aromatic_ring close_aromatic_ring close_aromatic_ring ring_built build_to_Nd0 close_aromatic_ring

>  <prot_clashes>  (5) 
0

>  <NBS phar>  (5) 
0.1

>  <NBS_non-phar>  (5) 
0.5380900859832763

>  <NBS>  (5) 
0.6380900859832763

>  <source_stage>  (5) 
scored

>  <source_iter>  (5) 
7

>  <source_parent_mol>  (5) 
0

>  <source_scenario>  (5) 
1 0 1 0 0 0 0

>  <source_rank_in_scored_call>  (5) 
4

>  <source_current_task>  (5) 
no_task

>  <scenario>  (5) 
1 0 1 0 0 0

>  <current_task>  (5) 
build_to_Nd0

>  <initiate_ring_bisect>  (5) 


$$$$

     RDKit          3D

 10 11  0  0  0  0  0  0  0  0999 V2000
  -28.1460   -7.3610  -32.0450 C   0  0  0  0  0  0  0  0  0  0  0  0
  -27.7010   -6.3840  -32.8840 N   0  0  0  0  0  0  0  0  0  0  0  0
  -28.2830   -8.7010  -32.1960 N   0  0  0  0  0  0  0  0  0  0  0  0
  -27.6640   -5.0970  -32.4790 C   0  0  0  0  0  0  0  0  0  0  0  0
  -28.0770   -4.7680  -31.2110 C   0  0  0  0  0  0  0  0  0  0  0  0
  -28.5360   -5.7420  -30.3300 C   0  0  0  0  0  0  0  0  0  0  0  0
  -28.5660   -7.0510  -30.7650 C   0  0  0  0  0  0  0  0  0  0  0  0
  -28.7750   -9.2400  -31.0540 C   0  0  0  0  0  0  0  0  0  0  0  0
  -28.9610   -8.2120  -30.1350 C   0  0  0  0  0  0  0  0  0  0  0  0
  -28.0360   -3.4550  -30.8050 N   0  0  0  0  0  0  0  0  0  0  0  0
  1  2  2  0
  1  3  1  0
  1  7  1  0
  2  4  1  0
  3  8  1  0
  4  5  2  0
  5 10  1  0
  5  6  1  0
  6  7  2  0
  7  9  1  0
  8  9  2  0
M  END
>  <name>  (6) 
Car Nac Nd0 Car Car Car Car Car Car Nd0

>  <indices>  (6) 
[0, 1, 2]

>  <tasks>  (6) 
probe_placing close_aromatic_ring close_aromatic_ring close_aromatic_ring close_aromatic_ring ring_built build_to_Nd0 close_aromatic_ring

>  <prot_clashes>  (6) 
0

>  <NBS phar>  (6) 
0.1

>  <NBS_non-phar>  (6) 
0.5211150169372558

>  <NBS>  (6) 
0.6211150169372558

>  <source_stage>  (6) 
scored

>  <source_iter>  (6) 
7

>  <source_parent_mol>  (6) 
0

>  <source_scenario>  (6) 
1 0 1 0 0 0 0

>  <source_rank_in_scored_call>  (6) 
5

>  <source_current_task>  (6) 
no_task

>  <scenario>  (6) 
1 0 1 0 0 0

>  <current_task>  (6) 
build_to_Nd0

$$$$

     RDKit          3D

  6  5  0  0  0  0  0  0  0  0999 V2000
  -28.7320   -8.0270  -32.2350 C   0  0  0  0  0  0  0  0  0  0  0  0
  -27.9040   -7.0830  -32.7640 N   0  0  0  0  0  0  0  0  0  0  0  0
  -28.7550   -9.3070  -32.8080 N   0  0  0  0  0  0  0  0  0  0  0  0
  -28.0960   -5.9390  -31.9420 C   0  0  0  0  0  0  0  0  0  0  0  0
  -27.5440   -4.6760  -31.9860 C   0  0  0  0  0  0  0  0  0  0  0  0
  -26.6530   -4.2540  -32.8870 N   0  0  0  0  0  0  0  0  0  0  0  0
  1  3  1  0
  1  2  2  3
  2  4  1  0
  4  5  2  3
  5  6  1  0
M  END
>  <name>  (1) 
Car Nac Nd0 Car Car Nd0

>  <indices>  (1) 
[0, 1, 2]

>  <dummy>  (1) 
2

>  <tasks>  (1) 
probe_placing close_aromatic_ring close_aromatic_ring

>  <current_task>  (1) 
close_aromatic_ring

>  <prot_clashes>  (1) 
3

>  <NBS phar>  (1) 
0.1

>  <NBS_non-phar>  (1) 
0.5834510723749796

>  <NBS>  (1) 
0.6834510723749796

>  <source_stage>  (1) 
scored

>  <source_iter>  (1) 
3

>  <source_parent_mol>  (1) 
2

>  <source_scenario>  (1) 
1 0 2

>  <source_rank_in_scored_call>  (1) 
0

>  <source_current_task>  (1) 
close_aromatic_ring

>  <scenario>  (1) 
1 0

>  <rotatable_bond_torsions>  (1) 
0,1,3,4

$$$$

     RDKit          3D

  6  5  0  0  0  0  0  0  0  0999 V2000
  -28.4520   -7.3830  -32.1110 C   0  0  0  0  0  0  0  0  0  0  0  0
  -27.6200   -6.4090  -32.5790 N   0  0  0  0  0  0  0  0  0  0  0  0
  -28.3760   -8.6670  -32.6700 N   0  0  0  0  0  0  0  0  0  0  0  0
  -27.9250   -5.2690  -31.7900 C   0  0  0  0  0  0  0  0  0  0  0  0
  -27.1620   -4.0280  -31.9790 C   0  0  0  0  0  0  0  0  0  0  0  0
  -26.1670   -4.0540  -32.9420 C   0  0  0  0  0  0  0  0  0  0  0  0
  1  3  1  0
  1  2  2  3
  2  4  1  0
  4  5  1  0
  5  6  1  0
M  END
>  <name>  (1) 
Car Nac Nd0 Car Car Car

>  <indices>  (1) 
[0, 1, 2]

>  <dummy>  (1) 
2

>  <tasks>  (1) 
probe_placing close_aromatic_ring close_aromatic_ring

>  <current_task>  (1) 
close_aromatic_ring

>  <prot_clashes>  (1) 
6

>  <NBS phar>  (1) 
0.12

>  <NBS_non-phar>  (1) 
0.5132619539896647

>  <NBS>  (1) 
0.6332619539896647

>  <source_stage>  (1) 
scored

>  <source_iter>  (1) 
3

>  <source_parent_mol>  (1) 
3

>  <source_scenario>  (1) 
1 0 3

>  <source_rank_in_scored_call>  (1) 
0

>  <source_current_task>  (1) 
close_aromatic_ring

>  <scenario>  (1) 
1 0

>  <rotatable_bond_torsions>  (1) 
0,1,3,4

$$$$

     RDKit          3D

  6  5  0  0  0  0  0  0  0  0999 V2000
  -28.5750   -7.4640  -32.1890 C   0  0  0  0  0  0  0  0  0  0  0  0
  -27.7510   -6.4440  -32.5620 N   0  0  0  0  0  0  0  0  0  0  0  0
  -28.4250   -8.7170  -32.8010 N   0  0  0  0  0  0  0  0  0  0  0  0
  -28.1390   -5.3530  -31.7400 C   0  0  0  0  0  0  0  0  0  0  0  0
  -27.4090   -4.0810  -31.8270 C   0  0  0  0  0  0  0  0  0  0  0  0
  -26.3540   -4.0060  -32.7060 C   0  0  0  0  0  0  0  0  0  0  0  0
  1  3  1  0
  1  2  2  3
  2  4  1  0
  4  5  1  0
  5  6  2  0
M  END
>  <name>  (2) 
Car Nac Nd0 Car Car Car

>  <indices>  (2) 
[0, 1, 2]

>  <dummy>  (2) 
2

>  <tasks>  (2) 
probe_placing close_aromatic_ring close_aromatic_ring

>  <current_task>  (2) 
close_aromatic_ring

>  <prot_clashes>  (2) 
5

>  <NBS phar>  (2) 
0.12

>  <NBS_non-phar>  (2) 
0.4729970296223958

>  <NBS>  (2) 
0.5929970296223959

>  <source_stage>  (2) 
scored

>  <source_iter>  (2) 
3

>  <source_parent_mol>  (2) 
3

>  <source_scenario>  (2) 
1 0 3

>  <source_rank_in_scored_call>  (2) 
1

>  <source_current_task>  (2) 
close_aromatic_ring

>  <scenario>  (2) 
1 0

>  <rotatable_bond_torsions>  (2) 
0,1,3,4

$$$$
