
     RDKit          3D

  4  3  0  0  0  0  0  0  0  0999 V2000
  -27.8640   -7.4760  -31.1990 C   0  0  0  0  0  0  0  0  0  0  0  0
  -27.5380   -6.7190  -32.2850 N   0  0  0  0  0  0  0  0  0  0  0  0
  -27.6840   -8.8650  -31.2620 N   0  0  0  0  0  0  0  0  0  0  0  0
  -27.1685   -8.9676  -32.6297 N   0  0  0  0  0  0  0  0  0  0  0  0
  1  2  2  0
  1  3  1  0
  3  4  1  0
M  END
>  <name>  (1) 
Car Nac Nd0 Nac

>  <indices>  (1) 
[0, 1, 2]

>  <dummy>  (1) 
1

>  <tasks>  (1) 
probe_placing

>  <reason_to_skip>  (1) 
bad angles

$$$$

     RDKit          3D

  4  3  0  0  0  0  0  0  0  0999 V2000
  -27.8640   -7.4760  -31.1990 C   0  0  0  0  0  0  0  0  0  0  0  0
  -27.5380   -6.7190  -32.2850 N   0  0  0  0  0  0  0  0  0  0  0  0
  -27.6840   -8.8650  -31.2620 N   0  0  0  0  0  0  0  0  0  0  0  0
  -27.1865   -9.0097  -32.5814 N   0  0  0  0  0  0  0  0  0  0  0  0
  1  2  2  0
  1  3  1  0
  3  4  1  0
M  END
>  <name>  (2) 
Car Nac Nd0 Nac

>  <indices>  (2) 
[0, 1, 2]

>  <dummy>  (2) 
1

>  <tasks>  (2) 
probe_placing

>  <reason_to_skip>  (2) 
intramol repulsion

$$$$

     RDKit          3D

  4  3  0  0  0  0  0  0  0  0999 V2000
  -27.8640   -7.4760  -31.1990 C   0  0  0  0  0  0  0  0  0  0  0  0
  -27.5380   -6.7190  -32.2850 N   0  0  0  0  0  0  0  0  0  0  0  0
  -27.6840   -8.8650  -31.2620 N   0  0  0  0  0  0  0  0  0  0  0  0
  -28.1225   -9.3310  -30.0118 N   0  0  0  0  0  0  0  0  0  0  0  0
  1  2  2  0
  1  3  1  0
  3  4  1  0
M  END
>  <name>  (3) 
Car Nac Nd0 Nac

>  <indices>  (3) 
[0, 1, 2]

>  <dummy>  (3) 
1

>  <tasks>  (3) 
probe_placing

>  <reason_to_skip>  (3) 
pair Nd0 Nac

$$$$

     RDKit          3D

  4  3  0  0  0  0  0  0  0  0999 V2000
  -27.8640   -7.4760  -31.1990 C   0  0  0  0  0  0  0  0  0  0  0  0
  -27.5380   -6.7190  -32.2850 N   0  0  0  0  0  0  0  0  0  0  0  0
  -27.6840   -8.8650  -31.2620 N   0  0  0  0  0  0  0  0  0  0  0  0
  -27.8995   -9.5881  -30.0804 N   0  0  0  0  0  0  0  0  0  0  0  0
  1  2  2  0
  1  3  1  0
  3  4  1  0
M  END
>  <name>  (4) 
Car Nac Nd0 Nd0

>  <indices>  (4) 
[0, 1, 2]

>  <dummy>  (4) 
1

>  <tasks>  (4) 
probe_placing

>  <reason_to_skip>  (4) 
paired Nd0

$$$$

     RDKit          3D

  4  3  0  0  0  0  0  0  0  0999 V2000
  -27.8640   -7.4760  -31.1990 C   0  0  0  0  0  0  0  0  0  0  0  0
  -27.5380   -6.7190  -32.2850 N   0  0  0  0  0  0  0  0  0  0  0  0
  -27.6840   -8.8650  -31.2620 N   0  0  0  0  0  0  0  0  0  0  0  0
  -27.2435   -8.9731  -32.5726 N   0  0  0  0  0  0  0  0  0  0  0  0
  1  2  2  0
  1  3  1  0
  3  4  1  0
M  END
>  <name>  (5) 
Car Nac Nd0 Nd0

>  <indices>  (5) 
[0, 1, 2]

>  <dummy>  (5) 
1

>  <tasks>  (5) 
probe_placing

>  <reason_to_skip>  (5) 
bad angles

$$$$

     RDKit          3D

  4  3  0  0  0  0  0  0  0  0999 V2000
  -27.8640   -7.4760  -31.1990 C   0  0  0  0  0  0  0  0  0  0  0  0
  -27.5380   -6.7190  -32.2850 N   0  0  0  0  0  0  0  0  0  0  0  0
  -27.6840   -8.8650  -31.2620 N   0  0  0  0  0  0  0  0  0  0  0  0
  -27.1814   -8.9378  -32.5452 N   0  0  0  0  0  0  0  0  0  0  0  0
  1  2  2  0
  1  3  1  0
  3  4  1  0
M  END
>  <name>  (6) 
Car Nac Nd0 Nd0

>  <indices>  (6) 
[0, 1, 2]

>  <dummy>  (6) 
1

>  <tasks>  (6) 
probe_placing

>  <reason_to_skip>  (6) 
bad angles

$$$$

     RDKit          3D

  4  3  0  0  0  0  0  0  0  0999 V2000
  -27.8640   -7.4760  -31.1990 C   0  0  0  0  0  0  0  0  0  0  0  0
  -27.5380   -6.7190  -32.2850 N   0  0  0  0  0  0  0  0  0  0  0  0
  -27.6840   -8.8650  -31.2620 N   0  0  0  0  0  0  0  0  0  0  0  0
    0.0000    0.0000    0.0000 O   0  0  0  0  0  0  0  0  0  0  0  0
  1  2  2  0
  1  3  1  0
  3  4  1  0
M  END
>  <name>  (7) 
Car Nac Nd0 O_a

>  <indices>  (7) 
[0, 1, 2]

>  <dummy>  (7) 
1

>  <tasks>  (7) 
probe_placing

>  <reason_to_skip>  (7) 
some_atom_counter_exceeded

$$$$

     RDKit          3D

  4  3  0  0  0  0  0  0  0  0999 V2000
  -27.8640   -7.4760  -31.1990 C   0  0  0  0  0  0  0  0  0  0  0  0
  -27.5380   -6.7190  -32.2850 N   0  0  0  0  0  0  0  0  0  0  0  0
  -27.6840   -8.8650  -31.2620 N   0  0  0  0  0  0  0  0  0  0  0  0
    0.0000    0.0000    0.0000 O   0  0  0  0  0  0  0  0  0  0  0  0
  1  2  2  0
  1  3  1  0
  3  4  1  0
M  END
>  <name>  (8) 
Car Nac Nd0 O_a

>  <indices>  (8) 
[0, 1, 2]

>  <dummy>  (8) 
1

>  <tasks>  (8) 
probe_placing

>  <reason_to_skip>  (8) 
some_atom_counter_exceeded

$$$$

     RDKit          3D

  4  3  0  0  0  0  0  0  0  0999 V2000
  -27.8640   -7.4760  -31.1990 C   0  0  0  0  0  0  0  0  0  0  0  0
  -27.5380   -6.7190  -32.2850 N   0  0  0  0  0  0  0  0  0  0  0  0
  -27.6840   -8.8650  -31.2620 N   0  0  0  0  0  0  0  0  0  0  0  0
  -28.4654   -9.6515  -30.3618 N   0  0  0  0  0  0  0  0  0  0  0  0
  1  2  2  0
  1  3  1  0
  3  4  1  0
M  END
>  <name>  (9) 
Car Nac Nd0 Nd0

>  <indices>  (9) 
[0, 1, 2]

>  <dummy>  (9) 
1

>  <tasks>  (9) 
probe_placing

>  <reason_to_skip>  (9) 
paired Nd0

$$$$

     RDKit          3D

  5  4  0  0  0  0  0  0  0  0999 V2000
  -27.8650   -7.7310  -31.7500 C   0  0  0  0  0  0  0  0  0  0  0  0
  -27.6820   -7.0250  -32.9020 N   0  0  0  0  0  0  0  0  0  0  0  0
  -27.6230   -9.1120  -31.7550 N   0  0  0  0  0  0  0  0  0  0  0  0
  -28.7540   -9.8600  -31.5320 C   0  0  0  0  0  0  0  0  0  0  0  0
    0.0000    0.0000    0.0000 S   0  0  0  0  0  0  0  0  0  0  0  0
  1  2  2  0
  1  3  1  0
  3  4  1  0
  4  5  1  0
M  END
>  <name>  (1) 
Car Nac Nd0 Car Sul

>  <indices>  (1) 
[0, 1, 2]

>  <dummy>  (1) 
1

>  <tasks>  (1) 
probe_placing close_aromatic_ring

>  <current_task>  (1) 
close_aromatic_ring

>  <prot_clashes>  (1) 
2

>  <NBS phar>  (1) 
0.22000000000000003

>  <NBS_non-phar>  (1) 
0.9162927865982056

>  <NBS>  (1) 
1.1362927865982055

>  <source_stage>  (1) 
scored

>  <source_iter>  (1) 
1

>  <source_parent_mol>  (1) 
0

>  <source_scenario>  (1) 
0

>  <source_rank_in_scored_call>  (1) 
0

>  <source_current_task>  (1) 
close_aromatic_ring

>  <rotatable_bond_torsions>  (1) 
1,0,2,3

>  <scenario>  (1) 
0

>  <reason_to_skip>  (1) 
some_atom_counter_exceeded

$$$$

     RDKit          3D

  5  4  0  0  0  0  0  0  0  0999 V2000
  -27.8650   -7.7310  -31.7500 C   0  0  0  0  0  0  0  0  0  0  0  0
  -27.6820   -7.0250  -32.9020 N   0  0  0  0  0  0  0  0  0  0  0  0
  -27.6230   -9.1120  -31.7550 N   0  0  0  0  0  0  0  0  0  0  0  0
  -28.7540   -9.8600  -31.5320 C   0  0  0  0  0  0  0  0  0  0  0  0
    0.0000    0.0000    0.0000 S   0  0  0  0  0  0  0  0  0  0  0  0
  1  2  2  0
  1  3  1  0
  3  4  1  0
  4  5  1  0
M  END
>  <name>  (2) 
Car Nac Nd0 Car Sul

>  <indices>  (2) 
[0, 1, 2]

>  <dummy>  (2) 
1

>  <tasks>  (2) 
probe_placing close_aromatic_ring

>  <current_task>  (2) 
close_aromatic_ring

>  <prot_clashes>  (2) 
2

>  <NBS phar>  (2) 
0.22000000000000003

>  <NBS_non-phar>  (2) 
0.9162927865982056

>  <NBS>  (2) 
1.1362927865982055

>  <source_stage>  (2) 
scored

>  <source_iter>  (2) 
1

>  <source_parent_mol>  (2) 
0

>  <source_scenario>  (2) 
0

>  <source_rank_in_scored_call>  (2) 
0

>  <source_current_task>  (2) 
close_aromatic_ring

>  <rotatable_bond_torsions>  (2) 
1,0,2,3

>  <scenario>  (2) 
0

>  <reason_to_skip>  (2) 
some_atom_counter_exceeded

$$$$

     RDKit          3D

  5  4  0  0  0  0  0  0  0  0999 V2000
  -27.8650   -7.7310  -31.7500 C   0  0  0  0  0  0  0  0  0  0  0  0
  -27.6820   -7.0250  -32.9020 N   0  0  0  0  0  0  0  0  0  0  0  0
  -27.6230   -9.1120  -31.7550 N   0  0  0  0  0  0  0  0  0  0  0  0
  -28.7540   -9.8600  -31.5320 C   0  0  0  0  0  0  0  0  0  0  0  0
    0.0000    0.0000    0.0000 O   0  0  0  0  0  0  0  0  0  0  0  0
  1  2  2  0
  1  3  1  0
  3  4  1  0
  4  5  1  0
M  END
>  <name>  (3) 
Car Nac Nd0 Car O_a

>  <indices>  (3) 
[0, 1, 2]

>  <dummy>  (3) 
1

>  <tasks>  (3) 
probe_placing close_aromatic_ring

>  <current_task>  (3) 
close_aromatic_ring

>  <prot_clashes>  (3) 
2

>  <NBS phar>  (3) 
0.22000000000000003

>  <NBS_non-phar>  (3) 
0.9162927865982056

>  <NBS>  (3) 
1.1362927865982055

>  <source_stage>  (3) 
scored

>  <source_iter>  (3) 
1

>  <source_parent_mol>  (3) 
0

>  <source_scenario>  (3) 
0

>  <source_rank_in_scored_call>  (3) 
0

>  <source_current_task>  (3) 
close_aromatic_ring

>  <rotatable_bond_torsions>  (3) 
1,0,2,3

>  <scenario>  (3) 
0

>  <reason_to_skip>  (3) 
some_atom_counter_exceeded

$$$$

     RDKit          3D

  5  4  0  0  0  0  0  0  0  0999 V2000
  -27.8650   -7.7310  -31.7500 C   0  0  0  0  0  0  0  0  0  0  0  0
  -27.6820   -7.0250  -32.9020 N   0  0  0  0  0  0  0  0  0  0  0  0
  -27.6230   -9.1120  -31.7550 N   0  0  0  0  0  0  0  0  0  0  0  0
  -28.7540   -9.8600  -31.5320 C   0  0  0  0  0  0  0  0  0  0  0  0
    0.0000    0.0000    0.0000 S   0  0  0  0  0  0  0  0  0  0  0  0
  1  2  2  0
  1  3  1  0
  3  4  1  0
  4  5  1  0
M  END
>  <name>  (4) 
Car Nac Nd0 Car Sul

>  <indices>  (4) 
[0, 1, 2]

>  <dummy>  (4) 
1

>  <tasks>  (4) 
probe_placing close_aromatic_ring

>  <current_task>  (4) 
close_aromatic_ring

>  <prot_clashes>  (4) 
2

>  <NBS phar>  (4) 
0.22000000000000003

>  <NBS_non-phar>  (4) 
0.9162927865982056

>  <NBS>  (4) 
1.1362927865982055

>  <source_stage>  (4) 
scored

>  <source_iter>  (4) 
1

>  <source_parent_mol>  (4) 
0

>  <source_scenario>  (4) 
0

>  <source_rank_in_scored_call>  (4) 
0

>  <source_current_task>  (4) 
close_aromatic_ring

>  <rotatable_bond_torsions>  (4) 
1,0,2,3

>  <scenario>  (4) 
0

>  <reason_to_skip>  (4) 
some_atom_counter_exceeded

$$$$

     RDKit          3D

  5  4  0  0  0  0  0  0  0  0999 V2000
  -27.8650   -7.7310  -31.7500 C   0  0  0  0  0  0  0  0  0  0  0  0
  -27.6820   -7.0250  -32.9020 N   0  0  0  0  0  0  0  0  0  0  0  0
  -27.6230   -9.1120  -31.7550 N   0  0  0  0  0  0  0  0  0  0  0  0
  -28.7540   -9.8600  -31.5320 C   0  0  0  0  0  0  0  0  0  0  0  0
  -28.5658  -11.2107  -31.3269 N   0  0  0  0  0  0  0  0  0  0  0  0
  1  2  2  0
  1  3  1  0
  3  4  1  0
  4  5  1  0
M  END
>  <name>  (5) 
Car Nac Nd0 Car Nd0

>  <indices>  (5) 
[0, 1, 2]

>  <dummy>  (5) 
1

>  <tasks>  (5) 
probe_placing close_aromatic_ring

>  <current_task>  (5) 
close_aromatic_ring

>  <prot_clashes>  (5) 
2

>  <NBS phar>  (5) 
0.22000000000000003

>  <NBS_non-phar>  (5) 
0.9162927865982056

>  <NBS>  (5) 
1.1362927865982055

>  <source_stage>  (5) 
scored

>  <source_iter>  (5) 
1

>  <source_parent_mol>  (5) 
0

>  <source_scenario>  (5) 
0

>  <source_rank_in_scored_call>  (5) 
0

>  <source_current_task>  (5) 
close_aromatic_ring

>  <rotatable_bond_torsions>  (5) 
1,0,2,3

>  <scenario>  (5) 
0

>  <reason_to_skip>  (5) 
subgraph mismatch

$$$$

     RDKit          3D

  5  4  0  0  0  0  0  0  0  0999 V2000
  -27.8650   -7.7310  -31.7500 C   0  0  0  0  0  0  0  0  0  0  0  0
  -27.6820   -7.0250  -32.9020 N   0  0  0  0  0  0  0  0  0  0  0  0
  -27.6230   -9.1120  -31.7550 N   0  0  0  0  0  0  0  0  0  0  0  0
  -28.7540   -9.8600  -31.5320 C   0  0  0  0  0  0  0  0  0  0  0  0
  -29.9253   -9.2913  -31.3513 N   0  0  0  0  0  0  0  0  0  0  0  0
  1  2  2  0
  1  3  1  0
  3  4  1  0
  4  5  1  0
M  END
>  <name>  (6) 
Car Nac Nd0 Car Nd0

>  <indices>  (6) 
[0, 1, 2]

>  <dummy>  (6) 
1

>  <tasks>  (6) 
probe_placing close_aromatic_ring

>  <current_task>  (6) 
close_aromatic_ring

>  <prot_clashes>  (6) 
2

>  <NBS phar>  (6) 
0.22000000000000003

>  <NBS_non-phar>  (6) 
0.9162927865982056

>  <NBS>  (6) 
1.1362927865982055

>  <source_stage>  (6) 
scored

>  <source_iter>  (6) 
1

>  <source_parent_mol>  (6) 
0

>  <source_scenario>  (6) 
0

>  <source_rank_in_scored_call>  (6) 
0

>  <source_current_task>  (6) 
close_aromatic_ring

>  <rotatable_bond_torsions>  (6) 
1,0,2,3

>  <scenario>  (6) 
0

>  <reason_to_skip>  (6) 
subgraph mismatch

$$$$

     RDKit          3D

  5  4  0  0  0  0  0  0  0  0999 V2000
  -27.8650   -7.7310  -31.7500 C   0  0  0  0  0  0  0  0  0  0  0  0
  -27.6820   -7.0250  -32.9020 N   0  0  0  0  0  0  0  0  0  0  0  0
  -27.6230   -9.1120  -31.7550 N   0  0  0  0  0  0  0  0  0  0  0  0
  -28.7540   -9.8600  -31.5320 C   0  0  0  0  0  0  0  0  0  0  0  0
  -28.5688  -11.2273  -31.4326 N   0  0  0  0  0  0  0  0  0  0  0  0
  1  2  2  0
  1  3  1  0
  3  4  1  0
  4  5  2  0
M  END
>  <name>  (7) 
Car Nac Nd0 Car Nac

>  <indices>  (7) 
[0, 1, 2]

>  <dummy>  (7) 
1

>  <tasks>  (7) 
probe_placing close_aromatic_ring

>  <current_task>  (7) 
close_aromatic_ring

>  <prot_clashes>  (7) 
2

>  <NBS phar>  (7) 
0.22000000000000003

>  <NBS_non-phar>  (7) 
0.9162927865982056

>  <NBS>  (7) 
1.1362927865982055

>  <source_stage>  (7) 
scored

>  <source_iter>  (7) 
1

>  <source_parent_mol>  (7) 
0

>  <source_scenario>  (7) 
0

>  <source_rank_in_scored_call>  (7) 
0

>  <source_current_task>  (7) 
close_aromatic_ring

>  <rotatable_bond_torsions>  (7) 
1,0,2,3

>  <scenario>  (7) 
0

>  <reason_to_skip>  (7) 
subgraph mismatch

$$$$

     RDKit          3D

  5  4  0  0  0  0  0  0  0  0999 V2000
  -27.8650   -7.7310  -31.7500 C   0  0  0  0  0  0  0  0  0  0  0  0
  -27.6820   -7.0250  -32.9020 N   0  0  0  0  0  0  0  0  0  0  0  0
  -27.6230   -9.1120  -31.7550 N   0  0  0  0  0  0  0  0  0  0  0  0
  -28.7540   -9.8600  -31.5320 C   0  0  0  0  0  0  0  0  0  0  0  0
  -29.7371   -9.6851  -30.6902 N   0  0  0  0  0  0  0  0  0  0  0  0
  1  2  2  0
  1  3  1  0
  3  4  1  0
  4  5  2  0
M  END
>  <name>  (8) 
Car Nac Nd0 Car Nac

>  <indices>  (8) 
[0, 1, 2]

>  <dummy>  (8) 
1

>  <tasks>  (8) 
probe_placing close_aromatic_ring

>  <current_task>  (8) 
close_aromatic_ring

>  <prot_clashes>  (8) 
2

>  <NBS phar>  (8) 
0.22000000000000003

>  <NBS_non-phar>  (8) 
0.9162927865982056

>  <NBS>  (8) 
1.1362927865982055

>  <source_stage>  (8) 
scored

>  <source_iter>  (8) 
1

>  <source_parent_mol>  (8) 
0

>  <source_scenario>  (8) 
0

>  <source_rank_in_scored_call>  (8) 
0

>  <source_current_task>  (8) 
close_aromatic_ring

>  <rotatable_bond_torsions>  (8) 
1,0,2,3

>  <scenario>  (8) 
0

>  <reason_to_skip>  (8) 
subgraph mismatch

$$$$

     RDKit          3D

  5  4  0  0  0  0  0  0  0  0999 V2000
  -27.8650   -7.7310  -31.7500 C   0  0  0  0  0  0  0  0  0  0  0  0
  -27.6820   -7.0250  -32.9020 N   0  0  0  0  0  0  0  0  0  0  0  0
  -27.6230   -9.1120  -31.7550 N   0  0  0  0  0  0  0  0  0  0  0  0
  -28.7540   -9.8600  -31.5320 C   0  0  0  0  0  0  0  0  0  0  0  0
  -29.3313  -10.5821  -32.5026 N   0  0  0  0  0  0  0  0  0  0  0  0
  1  2  2  0
  1  3  1  0
  3  4  1  0
  4  5  2  0
M  END
>  <name>  (9) 
Car Nac Nd0 Car Nac

>  <indices>  (9) 
[0, 1, 2]

>  <dummy>  (9) 
1

>  <tasks>  (9) 
probe_placing close_aromatic_ring

>  <current_task>  (9) 
close_aromatic_ring

>  <prot_clashes>  (9) 
2

>  <NBS phar>  (9) 
0.22000000000000003

>  <NBS_non-phar>  (9) 
0.9162927865982056

>  <NBS>  (9) 
1.1362927865982055

>  <source_stage>  (9) 
scored

>  <source_iter>  (9) 
1

>  <source_parent_mol>  (9) 
0

>  <source_scenario>  (9) 
0

>  <source_rank_in_scored_call>  (9) 
0

>  <source_current_task>  (9) 
close_aromatic_ring

>  <rotatable_bond_torsions>  (9) 
1,0,2,3

>  <scenario>  (9) 
0

>  <reason_to_skip>  (9) 
subgraph mismatch

$$$$

     RDKit          3D

  5  4  0  0  0  0  0  0  0  0999 V2000
  -27.8650   -7.7310  -31.7500 C   0  0  0  0  0  0  0  0  0  0  0  0
  -27.6820   -7.0250  -32.9020 N   0  0  0  0  0  0  0  0  0  0  0  0
  -27.6230   -9.1120  -31.7550 N   0  0  0  0  0  0  0  0  0  0  0  0
  -28.7540   -9.8600  -31.5320 C   0  0  0  0  0  0  0  0  0  0  0  0
  -29.9221   -9.4242  -31.1740 N   0  0  0  0  0  0  0  0  0  0  0  0
  1  2  2  0
  1  3  1  0
  3  4  1  0
  4  5  1  0
M  END
>  <name>  (10) 
Car Nac Nd0 Car Nac

>  <indices>  (10) 
[0, 1, 2]

>  <dummy>  (10) 
1

>  <tasks>  (10) 
probe_placing close_aromatic_ring

>  <current_task>  (10) 
close_aromatic_ring

>  <prot_clashes>  (10) 
2

>  <NBS phar>  (10) 
0.22000000000000003

>  <NBS_non-phar>  (10) 
0.9162927865982056

>  <NBS>  (10) 
1.1362927865982055

>  <source_stage>  (10) 
scored

>  <source_iter>  (10) 
1

>  <source_parent_mol>  (10) 
0

>  <source_scenario>  (10) 
0

>  <source_rank_in_scored_call>  (10) 
0

>  <source_current_task>  (10) 
close_aromatic_ring

>  <rotatable_bond_torsions>  (10) 
1,0,2,3

>  <scenario>  (10) 
0

>  <reason_to_skip>  (10) 
subgraph mismatch

$$$$

     RDKit          3D

  5  4  0  0  0  0  0  0  0  0999 V2000
  -27.8650   -7.7310  -31.7500 C   0  0  0  0  0  0  0  0  0  0  0  0
  -27.6820   -7.0250  -32.9020 N   0  0  0  0  0  0  0  0  0  0  0  0
  -27.6230   -9.1120  -31.7550 N   0  0  0  0  0  0  0  0  0  0  0  0
  -28.7540   -9.8600  -31.5320 C   0  0  0  0  0  0  0  0  0  0  0  0
  -28.9145  -11.1315  -31.4802 N   0  0  0  0  0  0  0  0  0  0  0  0
  1  2  2  0
  1  3  1  0
  3  4  1  0
  4  5  1  0
M  END
>  <name>  (11) 
Car Nac Nd0 Car Nac

>  <indices>  (11) 
[0, 1, 2]

>  <dummy>  (11) 
1

>  <tasks>  (11) 
probe_placing close_aromatic_ring

>  <current_task>  (11) 
close_aromatic_ring

>  <prot_clashes>  (11) 
2

>  <NBS phar>  (11) 
0.22000000000000003

>  <NBS_non-phar>  (11) 
0.9162927865982056

>  <NBS>  (11) 
1.1362927865982055

>  <source_stage>  (11) 
scored

>  <source_iter>  (11) 
1

>  <source_parent_mol>  (11) 
0

>  <source_scenario>  (11) 
0

>  <source_rank_in_scored_call>  (11) 
0

>  <source_current_task>  (11) 
close_aromatic_ring

>  <rotatable_bond_torsions>  (11) 
1,0,2,3

>  <scenario>  (11) 
0

>  <reason_to_skip>  (11) 
subgraph mismatch

$$$$

     RDKit          3D

  5  4  0  0  0  0  0  0  0  0999 V2000
  -27.8650   -7.7310  -31.7500 C   0  0  0  0  0  0  0  0  0  0  0  0
  -27.6820   -7.0250  -32.9020 N   0  0  0  0  0  0  0  0  0  0  0  0
  -27.6230   -9.1120  -31.7550 N   0  0  0  0  0  0  0  0  0  0  0  0
  -28.7540   -9.8600  -31.5320 C   0  0  0  0  0  0  0  0  0  0  0  0
  -28.7579  -10.6055  -30.4136 N   0  0  0  0  0  0  0  0  0  0  0  0
  1  2  2  0
  1  3  1  0
  3  4  1  0
  4  5  1  0
M  END
>  <name>  (12) 
Car Nac Nd0 Car Nac

>  <indices>  (12) 
[0, 1, 2]

>  <dummy>  (12) 
1

>  <tasks>  (12) 
probe_placing close_aromatic_ring

>  <current_task>  (12) 
close_aromatic_ring

>  <prot_clashes>  (12) 
2

>  <NBS phar>  (12) 
0.22000000000000003

>  <NBS_non-phar>  (12) 
0.9162927865982056

>  <NBS>  (12) 
1.1362927865982055

>  <source_stage>  (12) 
scored

>  <source_iter>  (12) 
1

>  <source_parent_mol>  (12) 
0

>  <source_scenario>  (12) 
0

>  <source_rank_in_scored_call>  (12) 
0

>  <source_current_task>  (12) 
close_aromatic_ring

>  <rotatable_bond_torsions>  (12) 
1,0,2,3

>  <scenario>  (12) 
0

>  <reason_to_skip>  (12) 
subgraph mismatch

$$$$

     RDKit          3D

  5  4  0  0  0  0  0  0  0  0999 V2000
  -27.8650   -7.7310  -31.7500 C   0  0  0  0  0  0  0  0  0  0  0  0
  -27.6820   -7.0250  -32.9020 N   0  0  0  0  0  0  0  0  0  0  0  0
  -27.6230   -9.1120  -31.7550 N   0  0  0  0  0  0  0  0  0  0  0  0
  -28.7540   -9.8600  -31.5320 C   0  0  0  0  0  0  0  0  0  0  0  0
  -29.6790  -10.3196  -32.4970 N   0  0  0  0  0  0  0  0  0  0  0  0
  1  2  2  0
  1  3  1  0
  3  4  1  0
  4  5  1  0
M  END
>  <name>  (13) 
Car Nac Nd0 Car Nac

>  <indices>  (13) 
[0, 1, 2]

>  <dummy>  (13) 
1

>  <tasks>  (13) 
probe_placing close_aromatic_ring

>  <current_task>  (13) 
close_aromatic_ring

>  <prot_clashes>  (13) 
2

>  <NBS phar>  (13) 
0.22000000000000003

>  <NBS_non-phar>  (13) 
0.9162927865982056

>  <NBS>  (13) 
1.1362927865982055

>  <source_stage>  (13) 
scored

>  <source_iter>  (13) 
1

>  <source_parent_mol>  (13) 
0

>  <source_scenario>  (13) 
0

>  <source_rank_in_scored_call>  (13) 
0

>  <source_current_task>  (13) 
close_aromatic_ring

>  <rotatable_bond_torsions>  (13) 
1,0,2,3

>  <scenario>  (13) 
0

>  <reason_to_skip>  (13) 
subgraph mismatch

$$$$

     RDKit          3D

  5  4  0  0  0  0  0  0  0  0999 V2000
  -27.8650   -7.7310  -31.7500 C   0  0  0  0  0  0  0  0  0  0  0  0
  -27.6820   -7.0250  -32.9020 N   0  0  0  0  0  0  0  0  0  0  0  0
  -27.6230   -9.1120  -31.7550 N   0  0  0  0  0  0  0  0  0  0  0  0
  -28.7540   -9.8600  -31.5320 C   0  0  0  0  0  0  0  0  0  0  0  0
  -30.0742   -9.3077  -31.2934 C   0  0  0  0  0  0  0  0  0  0  0  0
  1  2  2  0
  1  3  1  0
  3  4  1  0
  4  5  1  0
M  END
>  <name>  (14) 
Car Nac Nd0 Car Car

>  <indices>  (14) 
[0, 1, 2]

>  <dummy>  (14) 
1

>  <tasks>  (14) 
probe_placing close_aromatic_ring

>  <current_task>  (14) 
close_aromatic_ring

>  <prot_clashes>  (14) 
2

>  <NBS phar>  (14) 
0.22000000000000003

>  <NBS_non-phar>  (14) 
0.9162927865982056

>  <NBS>  (14) 
1.1362927865982055

>  <source_stage>  (14) 
scored

>  <source_iter>  (14) 
1

>  <source_parent_mol>  (14) 
0

>  <source_scenario>  (14) 
0

>  <source_rank_in_scored_call>  (14) 
0

>  <source_current_task>  (14) 
close_aromatic_ring

>  <rotatable_bond_torsions>  (14) 
1,0,2,3

>  <scenario>  (14) 
0

>  <reason_to_skip>  (14) 
too many clashes (9 with max 8)

$$$$

     RDKit          3D

  6  5  0  0  0  0  0  0  0  0999 V2000
  -27.8650   -7.7310  -31.7500 C   0  0  0  0  0  0  0  0  0  0  0  0
  -27.6820   -7.0250  -32.9020 N   0  0  0  0  0  0  0  0  0  0  0  0
  -27.6230   -9.1120  -31.7550 N   0  0  0  0  0  0  0  0  0  0  0  0
  -28.7540   -9.8600  -31.5320 C   0  0  0  0  0  0  0  0  0  0  0  0
  -28.7504  -10.7735  -30.3995 C   0  0  0  0  0  0  0  0  0  0  0  0
  -29.9876  -11.5681  -30.0441 C   0  0  0  0  0  0  0  0  0  0  0  0
  1  2  2  0
  1  3  1  0
  3  4  1  0
  4  5  2  3
  5  6  1  0
M  END
>  <name>  (1) 
Car Nac Nd0 Car Car Car

>  <indices>  (1) 
[0, 1, 2]

>  <dummy>  (1) 
1

>  <tasks>  (1) 
probe_placing close_aromatic_ring close_aromatic_ring

>  <current_task>  (1) 
close_aromatic_ring

>  <prot_clashes>  (1) 
1

>  <NBS phar>  (1) 
0.22000000000000003

>  <NBS_non-phar>  (1) 
0.8998829841613769

>  <NBS>  (1) 
1.1198829841613769

>  <source_stage>  (1) 
scored

>  <source_iter>  (1) 
2

>  <source_parent_mol>  (1) 
0

>  <source_scenario>  (1) 
0 0

>  <source_rank_in_scored_call>  (1) 
0

>  <source_current_task>  (1) 
close_aromatic_ring

>  <rotatable_bond_torsions>  (1) 
1,0,2,3;0,2,3,4

>  <scenario>  (1) 
0 0

>  <reason_to_skip>  (1) 
incorrect arom ring closing

$$$$

     RDKit          3D

  6  5  0  0  0  0  0  0  0  0999 V2000
  -27.8650   -7.7310  -31.7500 C   0  0  0  0  0  0  0  0  0  0  0  0
  -27.6820   -7.0250  -32.9020 N   0  0  0  0  0  0  0  0  0  0  0  0
  -27.6230   -9.1120  -31.7550 N   0  0  0  0  0  0  0  0  0  0  0  0
  -28.7540   -9.8600  -31.5320 C   0  0  0  0  0  0  0  0  0  0  0  0
  -28.7504  -10.7735  -30.3995 C   0  0  0  0  0  0  0  0  0  0  0  0
  -27.8643  -11.1097  -29.4278 N   0  0  0  0  0  0  0  0  0  0  0  0
  1  2  2  0
  1  3  1  0
  3  4  1  0
  4  5  2  3
  5  6  1  0
M  END
>  <name>  (2) 
Car Nac Nd0 Car Car Nac

>  <indices>  (2) 
[0, 1, 2]

>  <dummy>  (2) 
1

>  <tasks>  (2) 
probe_placing close_aromatic_ring close_aromatic_ring

>  <current_task>  (2) 
close_aromatic_ring

>  <prot_clashes>  (2) 
1

>  <NBS phar>  (2) 
0.22000000000000003

>  <NBS_non-phar>  (2) 
0.8998829841613769

>  <NBS>  (2) 
1.1198829841613769

>  <source_stage>  (2) 
scored

>  <source_iter>  (2) 
2

>  <source_parent_mol>  (2) 
0

>  <source_scenario>  (2) 
0 0

>  <source_rank_in_scored_call>  (2) 
0

>  <source_current_task>  (2) 
close_aromatic_ring

>  <rotatable_bond_torsions>  (2) 
1,0,2,3;0,2,3,4

>  <scenario>  (2) 
0 0

>  <reason_to_skip>  (2) 
bad angles

$$$$

     RDKit          3D

  6  5  0  0  0  0  0  0  0  0999 V2000
  -27.8650   -7.7310  -31.7500 C   0  0  0  0  0  0  0  0  0  0  0  0
  -27.6820   -7.0250  -32.9020 N   0  0  0  0  0  0  0  0  0  0  0  0
  -27.6230   -9.1120  -31.7550 N   0  0  0  0  0  0  0  0  0  0  0  0
  -28.7540   -9.8600  -31.5320 C   0  0  0  0  0  0  0  0  0  0  0  0
  -28.7504  -10.7735  -30.3995 C   0  0  0  0  0  0  0  0  0  0  0  0
  -30.0325  -11.3224  -30.4534 N   0  0  0  0  0  0  0  0  0  0  0  0
  1  2  2  0
  1  3  1  0
  3  4  1  0
  4  5  2  3
  5  6  1  0
M  END
>  <name>  (3) 
Car Nac Nd0 Car Car Nac

>  <indices>  (3) 
[0, 1, 2]

>  <dummy>  (3) 
1

>  <tasks>  (3) 
probe_placing close_aromatic_ring close_aromatic_ring

>  <current_task>  (3) 
close_aromatic_ring

>  <prot_clashes>  (3) 
1

>  <NBS phar>  (3) 
0.22000000000000003

>  <NBS_non-phar>  (3) 
0.8998829841613769

>  <NBS>  (3) 
1.1198829841613769

>  <source_stage>  (3) 
scored

>  <source_iter>  (3) 
2

>  <source_parent_mol>  (3) 
0

>  <source_scenario>  (3) 
0 0

>  <source_rank_in_scored_call>  (3) 
0

>  <source_current_task>  (3) 
close_aromatic_ring

>  <rotatable_bond_torsions>  (3) 
1,0,2,3;0,2,3,4

>  <scenario>  (3) 
0 0

>  <reason_to_skip>  (3) 
incorrect arom ring closing

$$$$

     RDKit          3D

  6  5  0  0  0  0  0  0  0  0999 V2000
  -27.8650   -7.7310  -31.7500 C   0  0  0  0  0  0  0  0  0  0  0  0
  -27.6820   -7.0250  -32.9020 N   0  0  0  0  0  0  0  0  0  0  0  0
  -27.6230   -9.1120  -31.7550 N   0  0  0  0  0  0  0  0  0  0  0  0
  -28.7540   -9.8600  -31.5320 C   0  0  0  0  0  0  0  0  0  0  0  0
  -28.7504  -10.7735  -30.3995 C   0  0  0  0  0  0  0  0  0  0  0  0
  -29.9125  -11.5384  -30.1976 C   0  0  0  0  0  0  0  0  0  0  0  0
  1  2  2  0
  1  3  1  0
  3  4  1  0
  4  5  2  3
  5  6  1  0
M  END
>  <name>  (4) 
Car Nac Nd0 Car Car Car

>  <indices>  (4) 
[0, 1, 2]

>  <dummy>  (4) 
1

>  <tasks>  (4) 
probe_placing close_aromatic_ring close_aromatic_ring

>  <current_task>  (4) 
close_aromatic_ring

>  <prot_clashes>  (4) 
1

>  <NBS phar>  (4) 
0.22000000000000003

>  <NBS_non-phar>  (4) 
0.8998829841613769

>  <NBS>  (4) 
1.1198829841613769

>  <source_stage>  (4) 
scored

>  <source_iter>  (4) 
2

>  <source_parent_mol>  (4) 
0

>  <source_scenario>  (4) 
0 0

>  <source_rank_in_scored_call>  (4) 
0

>  <source_current_task>  (4) 
close_aromatic_ring

>  <rotatable_bond_torsions>  (4) 
1,0,2,3;0,2,3,4

>  <scenario>  (4) 
0 0

>  <reason_to_skip>  (4) 
incorrect arom ring closing

$$$$

     RDKit          3D

  6  5  0  0  0  0  0  0  0  0999 V2000
  -27.8650   -7.7310  -31.7500 C   0  0  0  0  0  0  0  0  0  0  0  0
  -27.6820   -7.0250  -32.9020 N   0  0  0  0  0  0  0  0  0  0  0  0
  -27.6230   -9.1120  -31.7550 N   0  0  0  0  0  0  0  0  0  0  0  0
  -28.7540   -9.8600  -31.5320 C   0  0  0  0  0  0  0  0  0  0  0  0
  -28.7504  -10.7735  -30.3995 C   0  0  0  0  0  0  0  0  0  0  0  0
  -27.4548  -10.5529  -29.8883 N   0  0  0  0  0  0  0  0  0  0  0  0
  1  2  2  0
  1  3  1  0
  3  4  1  0
  4  5  2  3
  5  6  1  0
M  END
>  <name>  (5) 
Car Nac Nd0 Car Car Nac

>  <indices>  (5) 
[0, 1, 2]

>  <dummy>  (5) 
1

>  <tasks>  (5) 
probe_placing close_aromatic_ring close_aromatic_ring

>  <current_task>  (5) 
close_aromatic_ring

>  <prot_clashes>  (5) 
1

>  <NBS phar>  (5) 
0.22000000000000003

>  <NBS_non-phar>  (5) 
0.8998829841613769

>  <NBS>  (5) 
1.1198829841613769

>  <source_stage>  (5) 
scored

>  <source_iter>  (5) 
2

>  <source_parent_mol>  (5) 
0

>  <source_scenario>  (5) 
0 0

>  <source_rank_in_scored_call>  (5) 
0

>  <source_current_task>  (5) 
close_aromatic_ring

>  <rotatable_bond_torsions>  (5) 
1,0,2,3;0,2,3,4

>  <scenario>  (5) 
0 0

>  <reason_to_skip>  (5) 
incorrect arom ring closing

$$$$

     RDKit          3D

  6  5  0  0  0  0  0  0  0  0999 V2000
  -27.8650   -7.7310  -31.7500 C   0  0  0  0  0  0  0  0  0  0  0  0
  -27.6820   -7.0250  -32.9020 N   0  0  0  0  0  0  0  0  0  0  0  0
  -27.6230   -9.1120  -31.7550 N   0  0  0  0  0  0  0  0  0  0  0  0
  -28.7540   -9.8600  -31.5320 C   0  0  0  0  0  0  0  0  0  0  0  0
  -28.7504  -10.7735  -30.3995 C   0  0  0  0  0  0  0  0  0  0  0  0
  -27.4471  -10.5227  -29.8739 C   0  0  0  0  0  0  0  0  0  0  0  0
  1  2  2  0
  1  3  1  0
  3  4  1  0
  4  5  2  3
  5  6  1  0
M  END
>  <name>  (6) 
Car Nac Nd0 Car Car Car

>  <indices>  (6) 
[0, 1, 2]

>  <dummy>  (6) 
1

>  <tasks>  (6) 
probe_placing close_aromatic_ring close_aromatic_ring

>  <current_task>  (6) 
close_aromatic_ring

>  <prot_clashes>  (6) 
1

>  <NBS phar>  (6) 
0.22000000000000003

>  <NBS_non-phar>  (6) 
0.8998829841613769

>  <NBS>  (6) 
1.1198829841613769

>  <source_stage>  (6) 
scored

>  <source_iter>  (6) 
2

>  <source_parent_mol>  (6) 
0

>  <source_scenario>  (6) 
0 0

>  <source_rank_in_scored_call>  (6) 
0

>  <source_current_task>  (6) 
close_aromatic_ring

>  <rotatable_bond_torsions>  (6) 
1,0,2,3;0,2,3,4

>  <scenario>  (6) 
0 0

>  <reason_to_skip>  (6) 
incorrect arom ring closing

$$$$

     RDKit          3D

  6  5  0  0  0  0  0  0  0  0999 V2000
  -27.8650   -7.7310  -31.7500 C   0  0  0  0  0  0  0  0  0  0  0  0
  -27.6820   -7.0250  -32.9020 N   0  0  0  0  0  0  0  0  0  0  0  0
  -27.6230   -9.1120  -31.7550 N   0  0  0  0  0  0  0  0  0  0  0  0
  -28.7540   -9.8600  -31.5320 C   0  0  0  0  0  0  0  0  0  0  0  0
  -28.7504  -10.7735  -30.3995 C   0  0  0  0  0  0  0  0  0  0  0  0
    0.0000    0.0000    0.0000 O   0  0  0  0  0  0  0  0  0  0  0  0
  1  2  2  0
  1  3  1  0
  3  4  1  0
  4  5  2  3
  5  6  1  0
M  END
>  <name>  (7) 
Car Nac Nd0 Car Car O_a

>  <indices>  (7) 
[0, 1, 2]

>  <dummy>  (7) 
1

>  <tasks>  (7) 
probe_placing close_aromatic_ring close_aromatic_ring

>  <current_task>  (7) 
close_aromatic_ring

>  <prot_clashes>  (7) 
1

>  <NBS phar>  (7) 
0.22000000000000003

>  <NBS_non-phar>  (7) 
0.8998829841613769

>  <NBS>  (7) 
1.1198829841613769

>  <source_stage>  (7) 
scored

>  <source_iter>  (7) 
2

>  <source_parent_mol>  (7) 
0

>  <source_scenario>  (7) 
0 0

>  <source_rank_in_scored_call>  (7) 
0

>  <source_current_task>  (7) 
close_aromatic_ring

>  <rotatable_bond_torsions>  (7) 
1,0,2,3;0,2,3,4

>  <scenario>  (7) 
0 0

>  <reason_to_skip>  (7) 
some_atom_counter_exceeded

$$$$

     RDKit          3D

  6  5  0  0  0  0  0  0  0  0999 V2000
  -27.8650   -7.7310  -31.7500 C   0  0  0  0  0  0  0  0  0  0  0  0
  -27.6820   -7.0250  -32.9020 N   0  0  0  0  0  0  0  0  0  0  0  0
  -27.6230   -9.1120  -31.7550 N   0  0  0  0  0  0  0  0  0  0  0  0
  -28.7540   -9.8600  -31.5320 C   0  0  0  0  0  0  0  0  0  0  0  0
  -28.7504  -10.7735  -30.3995 C   0  0  0  0  0  0  0  0  0  0  0  0
  -29.6421  -11.6307  -29.8938 N   0  0  0  0  0  0  0  0  0  0  0  0
  1  2  2  0
  1  3  1  0
  3  4  1  0
  4  5  2  3
  5  6  1  0
M  END
>  <name>  (8) 
Car Nac Nd0 Car Car Nd0

>  <indices>  (8) 
[0, 1, 2]

>  <dummy>  (8) 
1

>  <tasks>  (8) 
probe_placing close_aromatic_ring close_aromatic_ring

>  <current_task>  (8) 
close_aromatic_ring

>  <prot_clashes>  (8) 
1

>  <NBS phar>  (8) 
0.22000000000000003

>  <NBS_non-phar>  (8) 
0.8998829841613769

>  <NBS>  (8) 
1.1198829841613769

>  <source_stage>  (8) 
scored

>  <source_iter>  (8) 
2

>  <source_parent_mol>  (8) 
0

>  <source_scenario>  (8) 
0 0

>  <source_rank_in_scored_call>  (8) 
0

>  <source_current_task>  (8) 
close_aromatic_ring

>  <rotatable_bond_torsions>  (8) 
1,0,2,3;0,2,3,4

>  <scenario>  (8) 
0 0

>  <reason_to_skip>  (8) 
incorrect arom ring closing

$$$$

     RDKit          3D

  6  5  0  0  0  0  0  0  0  0999 V2000
  -27.8650   -7.7310  -31.7500 C   0  0  0  0  0  0  0  0  0  0  0  0
  -27.6820   -7.0250  -32.9020 N   0  0  0  0  0  0  0  0  0  0  0  0
  -27.6230   -9.1120  -31.7550 N   0  0  0  0  0  0  0  0  0  0  0  0
  -28.7540   -9.8600  -31.5320 C   0  0  0  0  0  0  0  0  0  0  0  0
  -28.7504  -10.7735  -30.3995 C   0  0  0  0  0  0  0  0  0  0  0  0
  -29.8739  -11.5242  -30.1476 N   0  0  0  0  0  0  0  0  0  0  0  0
  1  2  2  0
  1  3  1  0
  3  4  1  0
  4  5  2  3
  5  6  1  0
M  END
>  <name>  (9) 
Car Nac Nd0 Car Car Nac

>  <indices>  (9) 
[0, 1, 2]

>  <dummy>  (9) 
1

>  <tasks>  (9) 
probe_placing close_aromatic_ring close_aromatic_ring

>  <current_task>  (9) 
close_aromatic_ring

>  <prot_clashes>  (9) 
1

>  <NBS phar>  (9) 
0.22000000000000003

>  <NBS_non-phar>  (9) 
0.8998829841613769

>  <NBS>  (9) 
1.1198829841613769

>  <source_stage>  (9) 
scored

>  <source_iter>  (9) 
2

>  <source_parent_mol>  (9) 
0

>  <source_scenario>  (9) 
0 0

>  <source_rank_in_scored_call>  (9) 
0

>  <source_current_task>  (9) 
close_aromatic_ring

>  <rotatable_bond_torsions>  (9) 
1,0,2,3;0,2,3,4

>  <scenario>  (9) 
0 0

>  <reason_to_skip>  (9) 
incorrect arom ring closing

$$$$

     RDKit          3D

  6  5  0  0  0  0  0  0  0  0999 V2000
  -27.8650   -7.7310  -31.7500 C   0  0  0  0  0  0  0  0  0  0  0  0
  -27.6820   -7.0250  -32.9020 N   0  0  0  0  0  0  0  0  0  0  0  0
  -27.6230   -9.1120  -31.7550 N   0  0  0  0  0  0  0  0  0  0  0  0
  -28.7540   -9.8600  -31.5320 C   0  0  0  0  0  0  0  0  0  0  0  0
  -28.7504  -10.7735  -30.3995 C   0  0  0  0  0  0  0  0  0  0  0  0
    0.0000    0.0000    0.0000 O   0  0  0  0  0  0  0  0  0  0  0  0
  1  2  2  0
  1  3  1  0
  3  4  1  0
  4  5  2  3
  5  6  1  0
M  END
>  <name>  (10) 
Car Nac Nd0 Car Car O_a

>  <indices>  (10) 
[0, 1, 2]

>  <dummy>  (10) 
1

>  <tasks>  (10) 
probe_placing close_aromatic_ring close_aromatic_ring

>  <current_task>  (10) 
close_aromatic_ring

>  <prot_clashes>  (10) 
1

>  <NBS phar>  (10) 
0.22000000000000003

>  <NBS_non-phar>  (10) 
0.8998829841613769

>  <NBS>  (10) 
1.1198829841613769

>  <source_stage>  (10) 
scored

>  <source_iter>  (10) 
2

>  <source_parent_mol>  (10) 
0

>  <source_scenario>  (10) 
0 0

>  <source_rank_in_scored_call>  (10) 
0

>  <source_current_task>  (10) 
close_aromatic_ring

>  <rotatable_bond_torsions>  (10) 
1,0,2,3;0,2,3,4

>  <scenario>  (10) 
0 0

>  <reason_to_skip>  (10) 
some_atom_counter_exceeded

$$$$

     RDKit          3D

  6  5  0  0  0  0  0  0  0  0999 V2000
  -27.8650   -7.7310  -31.7500 C   0  0  0  0  0  0  0  0  0  0  0  0
  -27.6820   -7.0250  -32.9020 N   0  0  0  0  0  0  0  0  0  0  0  0
  -27.6230   -9.1120  -31.7550 N   0  0  0  0  0  0  0  0  0  0  0  0
  -28.7540   -9.8600  -31.5320 C   0  0  0  0  0  0  0  0  0  0  0  0
  -28.7504  -10.7735  -30.3995 C   0  0  0  0  0  0  0  0  0  0  0  0
  -29.3911  -10.2053  -29.2849 C   0  0  0  0  0  0  0  0  0  0  0  0
  1  2  2  0
  1  3  1  0
  3  4  1  0
  4  5  2  3
  5  6  1  0
M  END
>  <name>  (11) 
Car Nac Nd0 Car Car Car

>  <indices>  (11) 
[0, 1, 2]

>  <dummy>  (11) 
1

>  <tasks>  (11) 
probe_placing close_aromatic_ring close_aromatic_ring

>  <current_task>  (11) 
close_aromatic_ring

>  <prot_clashes>  (11) 
1

>  <NBS phar>  (11) 
0.22000000000000003

>  <NBS_non-phar>  (11) 
0.8998829841613769

>  <NBS>  (11) 
1.1198829841613769

>  <source_stage>  (11) 
scored

>  <source_iter>  (11) 
2

>  <source_parent_mol>  (11) 
0

>  <source_scenario>  (11) 
0 0

>  <source_rank_in_scored_call>  (11) 
0

>  <source_current_task>  (11) 
close_aromatic_ring

>  <rotatable_bond_torsions>  (11) 
1,0,2,3;0,2,3,4

>  <scenario>  (11) 
0 0

>  <reason_to_skip>  (11) 
incorrect arom ring closing

$$$$

     RDKit          3D

  6  5  0  0  0  0  0  0  0  0999 V2000
  -27.8650   -7.7310  -31.7500 C   0  0  0  0  0  0  0  0  0  0  0  0
  -27.6820   -7.0250  -32.9020 N   0  0  0  0  0  0  0  0  0  0  0  0
  -27.6230   -9.1120  -31.7550 N   0  0  0  0  0  0  0  0  0  0  0  0
  -28.7540   -9.8600  -31.5320 C   0  0  0  0  0  0  0  0  0  0  0  0
  -28.7504  -10.7735  -30.3995 C   0  0  0  0  0  0  0  0  0  0  0  0
  -27.6763  -10.8386  -29.6143 N   0  0  0  0  0  0  0  0  0  0  0  0
  1  2  2  0
  1  3  1  0
  3  4  1  0
  4  5  2  3
  5  6  1  0
M  END
>  <name>  (12) 
Car Nac Nd0 Car Car Nd0

>  <indices>  (12) 
[0, 1, 2]

>  <dummy>  (12) 
1

>  <tasks>  (12) 
probe_placing close_aromatic_ring close_aromatic_ring

>  <current_task>  (12) 
close_aromatic_ring

>  <prot_clashes>  (12) 
1

>  <NBS phar>  (12) 
0.22000000000000003

>  <NBS_non-phar>  (12) 
0.8998829841613769

>  <NBS>  (12) 
1.1198829841613769

>  <source_stage>  (12) 
scored

>  <source_iter>  (12) 
2

>  <source_parent_mol>  (12) 
0

>  <source_scenario>  (12) 
0 0

>  <source_rank_in_scored_call>  (12) 
0

>  <source_current_task>  (12) 
close_aromatic_ring

>  <rotatable_bond_torsions>  (12) 
1,0,2,3;0,2,3,4

>  <scenario>  (12) 
0 0

>  <reason_to_skip>  (12) 
intramol repulsion

$$$$

     RDKit          3D

  6  5  0  0  0  0  0  0  0  0999 V2000
  -27.8650   -7.7310  -31.7500 C   0  0  0  0  0  0  0  0  0  0  0  0
  -27.6820   -7.0250  -32.9020 N   0  0  0  0  0  0  0  0  0  0  0  0
  -27.6230   -9.1120  -31.7550 N   0  0  0  0  0  0  0  0  0  0  0  0
  -28.7540   -9.8600  -31.5320 C   0  0  0  0  0  0  0  0  0  0  0  0
  -28.7504  -10.7735  -30.3995 C   0  0  0  0  0  0  0  0  0  0  0  0
  -29.8387  -11.4710  -30.1831 N   0  0  0  0  0  0  0  0  0  0  0  0
  1  2  2  0
  1  3  1  0
  3  4  1  0
  4  5  2  3
  5  6  1  0
M  END
>  <name>  (13) 
Car Nac Nd0 Car Car Nd0

>  <indices>  (13) 
[0, 1, 2]

>  <dummy>  (13) 
1

>  <tasks>  (13) 
probe_placing close_aromatic_ring close_aromatic_ring

>  <current_task>  (13) 
close_aromatic_ring

>  <prot_clashes>  (13) 
1

>  <NBS phar>  (13) 
0.22000000000000003

>  <NBS_non-phar>  (13) 
0.8998829841613769

>  <NBS>  (13) 
1.1198829841613769

>  <source_stage>  (13) 
scored

>  <source_iter>  (13) 
2

>  <source_parent_mol>  (13) 
0

>  <source_scenario>  (13) 
0 0

>  <source_rank_in_scored_call>  (13) 
0

>  <source_current_task>  (13) 
close_aromatic_ring

>  <rotatable_bond_torsions>  (13) 
1,0,2,3;0,2,3,4

>  <scenario>  (13) 
0 0

>  <reason_to_skip>  (13) 
incorrect arom ring closing

$$$$

     RDKit          3D

  6  5  0  0  0  0  0  0  0  0999 V2000
  -27.8650   -7.7310  -31.7500 C   0  0  0  0  0  0  0  0  0  0  0  0
  -27.6820   -7.0250  -32.9020 N   0  0  0  0  0  0  0  0  0  0  0  0
  -27.6230   -9.1120  -31.7550 N   0  0  0  0  0  0  0  0  0  0  0  0
  -28.7540   -9.8600  -31.5320 C   0  0  0  0  0  0  0  0  0  0  0  0
  -28.7504  -10.7735  -30.3995 C   0  0  0  0  0  0  0  0  0  0  0  0
    0.0000    0.0000    0.0000 S   0  0  0  0  0  0  0  0  0  0  0  0
  1  2  2  0
  1  3  1  0
  3  4  1  0
  4  5  2  3
  5  6  1  0
M  END
>  <name>  (14) 
Car Nac Nd0 Car Car Sul

>  <indices>  (14) 
[0, 1, 2]

>  <dummy>  (14) 
1

>  <tasks>  (14) 
probe_placing close_aromatic_ring close_aromatic_ring

>  <current_task>  (14) 
close_aromatic_ring

>  <prot_clashes>  (14) 
1

>  <NBS phar>  (14) 
0.22000000000000003

>  <NBS_non-phar>  (14) 
0.8998829841613769

>  <NBS>  (14) 
1.1198829841613769

>  <source_stage>  (14) 
scored

>  <source_iter>  (14) 
2

>  <source_parent_mol>  (14) 
0

>  <source_scenario>  (14) 
0 0

>  <source_rank_in_scored_call>  (14) 
0

>  <source_current_task>  (14) 
close_aromatic_ring

>  <rotatable_bond_torsions>  (14) 
1,0,2,3;0,2,3,4

>  <scenario>  (14) 
0 0

>  <reason_to_skip>  (14) 
some_atom_counter_exceeded

$$$$

     RDKit          3D

  6  5  0  0  0  0  0  0  0  0999 V2000
  -27.8650   -7.7310  -31.7500 C   0  0  0  0  0  0  0  0  0  0  0  0
  -27.6820   -7.0250  -32.9020 N   0  0  0  0  0  0  0  0  0  0  0  0
  -27.6230   -9.1120  -31.7550 N   0  0  0  0  0  0  0  0  0  0  0  0
  -28.7540   -9.8600  -31.5320 C   0  0  0  0  0  0  0  0  0  0  0  0
  -28.7504  -10.7735  -30.3995 C   0  0  0  0  0  0  0  0  0  0  0  0
  -29.5110  -10.5195  -29.2111 C   0  0  0  0  0  0  0  0  0  0  0  0
  1  2  2  0
  1  3  1  0
  3  4  1  0
  4  5  2  3
  5  6  1  0
M  END
>  <name>  (15) 
Car Nac Nd0 Car Car Car

>  <indices>  (15) 
[0, 1, 2]

>  <dummy>  (15) 
1

>  <tasks>  (15) 
probe_placing close_aromatic_ring close_aromatic_ring

>  <current_task>  (15) 
close_aromatic_ring

>  <prot_clashes>  (15) 
1

>  <NBS phar>  (15) 
0.22000000000000003

>  <NBS_non-phar>  (15) 
0.8998829841613769

>  <NBS>  (15) 
1.1198829841613769

>  <source_stage>  (15) 
scored

>  <source_iter>  (15) 
2

>  <source_parent_mol>  (15) 
0

>  <source_scenario>  (15) 
0 0

>  <source_rank_in_scored_call>  (15) 
0

>  <source_current_task>  (15) 
close_aromatic_ring

>  <rotatable_bond_torsions>  (15) 
1,0,2,3;0,2,3,4

>  <scenario>  (15) 
0 0

>  <reason_to_skip>  (15) 
incorrect arom ring closing

$$$$

     RDKit          3D

  6  5  0  0  0  0  0  0  0  0999 V2000
  -27.8650   -7.7310  -31.7500 C   0  0  0  0  0  0  0  0  0  0  0  0
  -27.6820   -7.0250  -32.9020 N   0  0  0  0  0  0  0  0  0  0  0  0
  -27.6230   -9.1120  -31.7550 N   0  0  0  0  0  0  0  0  0  0  0  0
  -28.7540   -9.8600  -31.5320 C   0  0  0  0  0  0  0  0  0  0  0  0
  -28.7504  -10.7735  -30.3995 C   0  0  0  0  0  0  0  0  0  0  0  0
  -27.9197  -11.0606  -29.4532 N   0  0  0  0  0  0  0  0  0  0  0  0
  1  2  2  0
  1  3  1  0
  3  4  1  0
  4  5  2  3
  5  6  1  0
M  END
>  <name>  (16) 
Car Nac Nd0 Car Car Nd0

>  <indices>  (16) 
[0, 1, 2]

>  <dummy>  (16) 
1

>  <tasks>  (16) 
probe_placing close_aromatic_ring close_aromatic_ring

>  <current_task>  (16) 
close_aromatic_ring

>  <prot_clashes>  (16) 
1

>  <NBS phar>  (16) 
0.22000000000000003

>  <NBS_non-phar>  (16) 
0.8998829841613769

>  <NBS>  (16) 
1.1198829841613769

>  <source_stage>  (16) 
scored

>  <source_iter>  (16) 
2

>  <source_parent_mol>  (16) 
0

>  <source_scenario>  (16) 
0 0

>  <source_rank_in_scored_call>  (16) 
0

>  <source_current_task>  (16) 
close_aromatic_ring

>  <rotatable_bond_torsions>  (16) 
1,0,2,3;0,2,3,4

>  <scenario>  (16) 
0 0

>  <reason_to_skip>  (16) 
bad angles

$$$$

     RDKit          3D

  6  5  0  0  0  0  0  0  0  0999 V2000
  -27.8650   -7.7310  -31.7500 C   0  0  0  0  0  0  0  0  0  0  0  0
  -27.6820   -7.0250  -32.9020 N   0  0  0  0  0  0  0  0  0  0  0  0
  -27.6230   -9.1120  -31.7550 N   0  0  0  0  0  0  0  0  0  0  0  0
  -28.7540   -9.8600  -31.5320 C   0  0  0  0  0  0  0  0  0  0  0  0
  -28.7504  -10.7735  -30.3995 C   0  0  0  0  0  0  0  0  0  0  0  0
    0.0000    0.0000    0.0000 O   0  0  0  0  0  0  0  0  0  0  0  0
  1  2  2  0
  1  3  1  0
  3  4  1  0
  4  5  2  3
  5  6  1  0
M  END
>  <name>  (17) 
Car Nac Nd0 Car Car O_a

>  <indices>  (17) 
[0, 1, 2]

>  <dummy>  (17) 
1

>  <tasks>  (17) 
probe_placing close_aromatic_ring close_aromatic_ring

>  <current_task>  (17) 
close_aromatic_ring

>  <prot_clashes>  (17) 
1

>  <NBS phar>  (17) 
0.22000000000000003

>  <NBS_non-phar>  (17) 
0.8998829841613769

>  <NBS>  (17) 
1.1198829841613769

>  <source_stage>  (17) 
scored

>  <source_iter>  (17) 
2

>  <source_parent_mol>  (17) 
0

>  <source_scenario>  (17) 
0 0

>  <source_rank_in_scored_call>  (17) 
0

>  <source_current_task>  (17) 
close_aromatic_ring

>  <rotatable_bond_torsions>  (17) 
1,0,2,3;0,2,3,4

>  <scenario>  (17) 
0 0

>  <reason_to_skip>  (17) 
some_atom_counter_exceeded

$$$$

     RDKit          3D

  6  5  0  0  0  0  0  0  0  0999 V2000
  -27.8650   -7.7310  -31.7500 C   0  0  0  0  0  0  0  0  0  0  0  0
  -27.6820   -7.0250  -32.9020 N   0  0  0  0  0  0  0  0  0  0  0  0
  -27.6230   -9.1120  -31.7550 N   0  0  0  0  0  0  0  0  0  0  0  0
  -28.7540   -9.8600  -31.5320 C   0  0  0  0  0  0  0  0  0  0  0  0
  -28.7504  -10.7735  -30.3995 C   0  0  0  0  0  0  0  0  0  0  0  0
    0.0000    0.0000    0.0000 S   0  0  0  0  0  0  0  0  0  0  0  0
  1  2  2  0
  1  3  1  0
  3  4  1  0
  4  5  2  3
  5  6  1  0
M  END
>  <name>  (18) 
Car Nac Nd0 Car Car Sul

>  <indices>  (18) 
[0, 1, 2]

>  <dummy>  (18) 
1

>  <tasks>  (18) 
probe_placing close_aromatic_ring close_aromatic_ring

>  <current_task>  (18) 
close_aromatic_ring

>  <prot_clashes>  (18) 
1

>  <NBS phar>  (18) 
0.22000000000000003

>  <NBS_non-phar>  (18) 
0.8998829841613769

>  <NBS>  (18) 
1.1198829841613769

>  <source_stage>  (18) 
scored

>  <source_iter>  (18) 
2

>  <source_parent_mol>  (18) 
0

>  <source_scenario>  (18) 
0 0

>  <source_rank_in_scored_call>  (18) 
0

>  <source_current_task>  (18) 
close_aromatic_ring

>  <rotatable_bond_torsions>  (18) 
1,0,2,3;0,2,3,4

>  <scenario>  (18) 
0 0

>  <reason_to_skip>  (18) 
some_atom_counter_exceeded

$$$$

     RDKit          3D

  6  5  0  0  0  0  0  0  0  0999 V2000
  -27.8650   -7.7310  -31.7500 C   0  0  0  0  0  0  0  0  0  0  0  0
  -27.6820   -7.0250  -32.9020 N   0  0  0  0  0  0  0  0  0  0  0  0
  -27.6230   -9.1120  -31.7550 N   0  0  0  0  0  0  0  0  0  0  0  0
  -28.7540   -9.8600  -31.5320 C   0  0  0  0  0  0  0  0  0  0  0  0
  -28.7504  -10.7735  -30.3995 C   0  0  0  0  0  0  0  0  0  0  0  0
    0.0000    0.0000    0.0000 S   0  0  0  0  0  0  0  0  0  0  0  0
  1  2  2  0
  1  3  1  0
  3  4  1  0
  4  5  2  3
  5  6  1  0
M  END
>  <name>  (19) 
Car Nac Nd0 Car Car Sul

>  <indices>  (19) 
[0, 1, 2]

>  <dummy>  (19) 
1

>  <tasks>  (19) 
probe_placing close_aromatic_ring close_aromatic_ring

>  <current_task>  (19) 
close_aromatic_ring

>  <prot_clashes>  (19) 
1

>  <NBS phar>  (19) 
0.22000000000000003

>  <NBS_non-phar>  (19) 
0.8998829841613769

>  <NBS>  (19) 
1.1198829841613769

>  <source_stage>  (19) 
scored

>  <source_iter>  (19) 
2

>  <source_parent_mol>  (19) 
0

>  <source_scenario>  (19) 
0 0

>  <source_rank_in_scored_call>  (19) 
0

>  <source_current_task>  (19) 
close_aromatic_ring

>  <rotatable_bond_torsions>  (19) 
1,0,2,3;0,2,3,4

>  <scenario>  (19) 
0 0

>  <reason_to_skip>  (19) 
some_atom_counter_exceeded

$$$$

     RDKit          3D

  6  5  0  0  0  0  0  0  0  0999 V2000
  -27.8650   -7.7310  -31.7500 C   0  0  0  0  0  0  0  0  0  0  0  0
  -27.6820   -7.0250  -32.9020 N   0  0  0  0  0  0  0  0  0  0  0  0
  -27.6230   -9.1120  -31.7550 N   0  0  0  0  0  0  0  0  0  0  0  0
  -28.7540   -9.8600  -31.5320 C   0  0  0  0  0  0  0  0  0  0  0  0
  -28.7504  -10.7735  -30.3995 C   0  0  0  0  0  0  0  0  0  0  0  0
    0.0000    0.0000    0.0000 S   0  0  0  0  0  0  0  0  0  0  0  0
  1  2  2  0
  1  3  1  0
  3  4  1  0
  4  5  2  3
  5  6  1  0
M  END
>  <name>  (20) 
Car Nac Nd0 Car Car Sul

>  <indices>  (20) 
[0, 1, 2]

>  <dummy>  (20) 
1

>  <tasks>  (20) 
probe_placing close_aromatic_ring close_aromatic_ring

>  <current_task>  (20) 
close_aromatic_ring

>  <prot_clashes>  (20) 
1

>  <NBS phar>  (20) 
0.22000000000000003

>  <NBS_non-phar>  (20) 
0.8998829841613769

>  <NBS>  (20) 
1.1198829841613769

>  <source_stage>  (20) 
scored

>  <source_iter>  (20) 
2

>  <source_parent_mol>  (20) 
0

>  <source_scenario>  (20) 
0 0

>  <source_rank_in_scored_call>  (20) 
0

>  <source_current_task>  (20) 
close_aromatic_ring

>  <rotatable_bond_torsions>  (20) 
1,0,2,3;0,2,3,4

>  <scenario>  (20) 
0 0

>  <reason_to_skip>  (20) 
some_atom_counter_exceeded

$$$$

     RDKit          3D

  6  5  0  0  0  0  0  0  0  0999 V2000
  -27.8650   -7.7310  -31.7500 C   0  0  0  0  0  0  0  0  0  0  0  0
  -27.6820   -7.0250  -32.9020 N   0  0  0  0  0  0  0  0  0  0  0  0
  -27.6230   -9.1120  -31.7550 N   0  0  0  0  0  0  0  0  0  0  0  0
  -28.7540   -9.8600  -31.5320 C   0  0  0  0  0  0  0  0  0  0  0  0
  -28.7504  -10.7735  -30.3995 C   0  0  0  0  0  0  0  0  0  0  0  0
    0.0000    0.0000    0.0000 O   0  0  0  0  0  0  0  0  0  0  0  0
  1  2  2  0
  1  3  1  0
  3  4  1  0
  4  5  2  3
  5  6  1  0
M  END
>  <name>  (21) 
Car Nac Nd0 Car Car O_a

>  <indices>  (21) 
[0, 1, 2]

>  <dummy>  (21) 
1

>  <tasks>  (21) 
probe_placing close_aromatic_ring close_aromatic_ring

>  <current_task>  (21) 
close_aromatic_ring

>  <prot_clashes>  (21) 
1

>  <NBS phar>  (21) 
0.22000000000000003

>  <NBS_non-phar>  (21) 
0.8998829841613769

>  <NBS>  (21) 
1.1198829841613769

>  <source_stage>  (21) 
scored

>  <source_iter>  (21) 
2

>  <source_parent_mol>  (21) 
0

>  <source_scenario>  (21) 
0 0

>  <source_rank_in_scored_call>  (21) 
0

>  <source_current_task>  (21) 
close_aromatic_ring

>  <rotatable_bond_torsions>  (21) 
1,0,2,3;0,2,3,4

>  <scenario>  (21) 
0 0

>  <reason_to_skip>  (21) 
some_atom_counter_exceeded

$$$$

     RDKit          3D

  6  5  0  0  0  0  0  0  0  0999 V2000
  -27.8650   -7.7310  -31.7500 C   0  0  0  0  0  0  0  0  0  0  0  0
  -27.6820   -7.0250  -32.9020 N   0  0  0  0  0  0  0  0  0  0  0  0
  -27.6230   -9.1120  -31.7550 N   0  0  0  0  0  0  0  0  0  0  0  0
  -28.7540   -9.8600  -31.5320 C   0  0  0  0  0  0  0  0  0  0  0  0
  -28.7504  -10.7735  -30.3995 C   0  0  0  0  0  0  0  0  0  0  0  0
    0.0000    0.0000    0.0000 S   0  0  0  0  0  0  0  0  0  0  0  0
  1  2  2  0
  1  3  1  0
  3  4  1  0
  4  5  2  3
  5  6  1  0
M  END
>  <name>  (22) 
Car Nac Nd0 Car Car Sul

>  <indices>  (22) 
[0, 1, 2]

>  <dummy>  (22) 
1

>  <tasks>  (22) 
probe_placing close_aromatic_ring close_aromatic_ring

>  <current_task>  (22) 
close_aromatic_ring

>  <prot_clashes>  (22) 
1

>  <NBS phar>  (22) 
0.22000000000000003

>  <NBS_non-phar>  (22) 
0.8998829841613769

>  <NBS>  (22) 
1.1198829841613769

>  <source_stage>  (22) 
scored

>  <source_iter>  (22) 
2

>  <source_parent_mol>  (22) 
0

>  <source_scenario>  (22) 
0 0

>  <source_rank_in_scored_call>  (22) 
0

>  <source_current_task>  (22) 
close_aromatic_ring

>  <rotatable_bond_torsions>  (22) 
1,0,2,3;0,2,3,4

>  <scenario>  (22) 
0 0

>  <reason_to_skip>  (22) 
some_atom_counter_exceeded

$$$$

     RDKit          3D

  6  5  0  0  0  0  0  0  0  0999 V2000
  -27.8650   -7.7310  -31.7500 C   0  0  0  0  0  0  0  0  0  0  0  0
  -27.6820   -7.0250  -32.9020 N   0  0  0  0  0  0  0  0  0  0  0  0
  -27.6230   -9.1120  -31.7550 N   0  0  0  0  0  0  0  0  0  0  0  0
  -28.7540   -9.8600  -31.5320 C   0  0  0  0  0  0  0  0  0  0  0  0
  -28.7504  -10.7735  -30.3995 C   0  0  0  0  0  0  0  0  0  0  0  0
    0.0000    0.0000    0.0000 S   0  0  0  0  0  0  0  0  0  0  0  0
  1  2  2  0
  1  3  1  0
  3  4  1  0
  4  5  2  3
  5  6  1  0
M  END
>  <name>  (23) 
Car Nac Nd0 Car Car Sul

>  <indices>  (23) 
[0, 1, 2]

>  <dummy>  (23) 
1

>  <tasks>  (23) 
probe_placing close_aromatic_ring close_aromatic_ring

>  <current_task>  (23) 
close_aromatic_ring

>  <prot_clashes>  (23) 
1

>  <NBS phar>  (23) 
0.22000000000000003

>  <NBS_non-phar>  (23) 
0.8998829841613769

>  <NBS>  (23) 
1.1198829841613769

>  <source_stage>  (23) 
scored

>  <source_iter>  (23) 
2

>  <source_parent_mol>  (23) 
0

>  <source_scenario>  (23) 
0 0

>  <source_rank_in_scored_call>  (23) 
0

>  <source_current_task>  (23) 
close_aromatic_ring

>  <rotatable_bond_torsions>  (23) 
1,0,2,3;0,2,3,4

>  <scenario>  (23) 
0 0

>  <reason_to_skip>  (23) 
some_atom_counter_exceeded

$$$$

     RDKit          3D

  6  5  0  0  0  0  0  0  0  0999 V2000
  -27.8650   -7.7310  -31.7500 C   0  0  0  0  0  0  0  0  0  0  0  0
  -27.6820   -7.0250  -32.9020 N   0  0  0  0  0  0  0  0  0  0  0  0
  -27.6230   -9.1120  -31.7550 N   0  0  0  0  0  0  0  0  0  0  0  0
  -28.7540   -9.8600  -31.5320 C   0  0  0  0  0  0  0  0  0  0  0  0
  -28.7504  -10.7735  -30.3995 C   0  0  0  0  0  0  0  0  0  0  0  0
  -28.9216  -12.1372  -30.6159 C   0  0  0  0  0  0  0  0  0  0  0  0
  1  2  2  0
  1  3  1  0
  3  4  1  0
  4  5  2  3
  5  6  1  0
M  END
>  <name>  (24) 
Car Nac Nd0 Car Car Car

>  <indices>  (24) 
[0, 1, 2]

>  <dummy>  (24) 
1

>  <tasks>  (24) 
probe_placing close_aromatic_ring close_aromatic_ring

>  <current_task>  (24) 
close_aromatic_ring

>  <prot_clashes>  (24) 
1

>  <NBS phar>  (24) 
0.22000000000000003

>  <NBS_non-phar>  (24) 
0.8998829841613769

>  <NBS>  (24) 
1.1198829841613769

>  <source_stage>  (24) 
scored

>  <source_iter>  (24) 
2

>  <source_parent_mol>  (24) 
0

>  <source_scenario>  (24) 
0 0

>  <source_rank_in_scored_call>  (24) 
0

>  <source_current_task>  (24) 
close_aromatic_ring

>  <rotatable_bond_torsions>  (24) 
1,0,2,3;0,2,3,4

>  <scenario>  (24) 
0 0

>  <reason_to_skip>  (24) 
incorrect arom ring closing

$$$$

     RDKit          3D

  6  5  0  0  0  0  0  0  0  0999 V2000
  -27.8650   -7.7310  -31.7500 C   0  0  0  0  0  0  0  0  0  0  0  0
  -27.6820   -7.0250  -32.9020 N   0  0  0  0  0  0  0  0  0  0  0  0
  -27.6230   -9.1120  -31.7550 N   0  0  0  0  0  0  0  0  0  0  0  0
  -28.7540   -9.8600  -31.5320 C   0  0  0  0  0  0  0  0  0  0  0  0
  -28.7504  -10.7735  -30.3995 C   0  0  0  0  0  0  0  0  0  0  0  0
  -28.3228  -12.2300  -30.6452 C   0  0  0  0  0  0  0  0  0  0  0  0
  1  2  2  0
  1  3  1  0
  3  4  1  0
  4  5  2  3
  5  6  1  0
M  END
>  <name>  (25) 
Car Nac Nd0 Car Car Car

>  <indices>  (25) 
[0, 1, 2]

>  <dummy>  (25) 
1

>  <tasks>  (25) 
probe_placing close_aromatic_ring close_aromatic_ring

>  <current_task>  (25) 
close_aromatic_ring

>  <prot_clashes>  (25) 
1

>  <NBS phar>  (25) 
0.22000000000000003

>  <NBS_non-phar>  (25) 
0.8998829841613769

>  <NBS>  (25) 
1.1198829841613769

>  <source_stage>  (25) 
scored

>  <source_iter>  (25) 
2

>  <source_parent_mol>  (25) 
0

>  <source_scenario>  (25) 
0 0

>  <source_rank_in_scored_call>  (25) 
0

>  <source_current_task>  (25) 
close_aromatic_ring

>  <rotatable_bond_torsions>  (25) 
1,0,2,3;0,2,3,4

>  <scenario>  (25) 
0 0

>  <reason_to_skip>  (25) 
incorrect arom ring closing

$$$$

     RDKit          3D

  6  5  0  0  0  0  0  0  0  0999 V2000
  -27.8650   -7.7310  -31.7500 C   0  0  0  0  0  0  0  0  0  0  0  0
  -27.6820   -7.0250  -32.9020 N   0  0  0  0  0  0  0  0  0  0  0  0
  -27.6230   -9.1120  -31.7550 N   0  0  0  0  0  0  0  0  0  0  0  0
  -28.7540   -9.8600  -31.5320 C   0  0  0  0  0  0  0  0  0  0  0  0
  -28.7504  -10.7735  -30.3995 C   0  0  0  0  0  0  0  0  0  0  0  0
  -27.8123  -11.0983  -29.3654 C   0  0  0  0  0  0  0  0  0  0  0  0
  1  2  2  0
  1  3  1  0
  3  4  1  0
  4  5  2  3
  5  6  1  0
M  END
>  <name>  (26) 
Car Nac Nd0 Car Car Car

>  <indices>  (26) 
[0, 1, 2]

>  <dummy>  (26) 
1

>  <tasks>  (26) 
probe_placing close_aromatic_ring close_aromatic_ring

>  <current_task>  (26) 
close_aromatic_ring

>  <prot_clashes>  (26) 
1

>  <NBS phar>  (26) 
0.22000000000000003

>  <NBS_non-phar>  (26) 
0.8998829841613769

>  <NBS>  (26) 
1.1198829841613769

>  <source_stage>  (26) 
scored

>  <source_iter>  (26) 
2

>  <source_parent_mol>  (26) 
0

>  <source_scenario>  (26) 
0 0

>  <source_rank_in_scored_call>  (26) 
0

>  <source_current_task>  (26) 
close_aromatic_ring

>  <rotatable_bond_torsions>  (26) 
1,0,2,3;0,2,3,4

>  <scenario>  (26) 
0 0

>  <reason_to_skip>  (26) 
subgraph mismatch

$$$$

     RDKit          3D

  6  5  0  0  0  0  0  0  0  0999 V2000
  -27.8650   -7.7310  -31.7500 C   0  0  0  0  0  0  0  0  0  0  0  0
  -27.6820   -7.0250  -32.9020 N   0  0  0  0  0  0  0  0  0  0  0  0
  -27.6230   -9.1120  -31.7550 N   0  0  0  0  0  0  0  0  0  0  0  0
  -28.7540   -9.8600  -31.5320 C   0  0  0  0  0  0  0  0  0  0  0  0
  -28.7504  -10.7735  -30.3995 C   0  0  0  0  0  0  0  0  0  0  0  0
  -27.7219  -10.9637  -29.5263 C   0  0  0  0  0  0  0  0  0  0  0  0
  1  2  2  0
  1  3  1  0
  3  4  1  0
  4  5  2  3
  5  6  1  0
M  END
>  <name>  (27) 
Car Nac Nd0 Car Car Car

>  <indices>  (27) 
[0, 1, 2]

>  <dummy>  (27) 
1

>  <tasks>  (27) 
probe_placing close_aromatic_ring close_aromatic_ring

>  <current_task>  (27) 
close_aromatic_ring

>  <prot_clashes>  (27) 
1

>  <NBS phar>  (27) 
0.22000000000000003

>  <NBS_non-phar>  (27) 
0.8998829841613769

>  <NBS>  (27) 
1.1198829841613769

>  <source_stage>  (27) 
scored

>  <source_iter>  (27) 
2

>  <source_parent_mol>  (27) 
0

>  <source_scenario>  (27) 
0 0

>  <source_rank_in_scored_call>  (27) 
0

>  <source_current_task>  (27) 
close_aromatic_ring

>  <rotatable_bond_torsions>  (27) 
1,0,2,3;0,2,3,4

>  <scenario>  (27) 
0 0

>  <reason_to_skip>  (27) 
subgraph mismatch

$$$$

     RDKit          3D

  6  5  0  0  0  0  0  0  0  0999 V2000
  -27.8650   -7.7310  -31.7500 C   0  0  0  0  0  0  0  0  0  0  0  0
  -27.6820   -7.0250  -32.9020 N   0  0  0  0  0  0  0  0  0  0  0  0
  -27.6230   -9.1120  -31.7550 N   0  0  0  0  0  0  0  0  0  0  0  0
  -28.7540   -9.8600  -31.5320 C   0  0  0  0  0  0  0  0  0  0  0  0
  -28.7504  -10.7735  -30.3995 C   0  0  0  0  0  0  0  0  0  0  0  0
  -27.7719  -11.0005  -29.5184 N   0  0  0  0  0  0  0  0  0  0  0  0
  1  2  2  0
  1  3  1  0
  3  4  1  0
  4  5  2  3
  5  6  1  0
M  END
>  <name>  (28) 
Car Nac Nd0 Car Car Nac

>  <indices>  (28) 
[0, 1, 2]

>  <dummy>  (28) 
1

>  <tasks>  (28) 
probe_placing close_aromatic_ring close_aromatic_ring

>  <current_task>  (28) 
close_aromatic_ring

>  <prot_clashes>  (28) 
1

>  <NBS phar>  (28) 
0.22000000000000003

>  <NBS_non-phar>  (28) 
0.8998829841613769

>  <NBS>  (28) 
1.1198829841613769

>  <source_stage>  (28) 
scored

>  <source_iter>  (28) 
2

>  <source_parent_mol>  (28) 
0

>  <source_scenario>  (28) 
0 0

>  <source_rank_in_scored_call>  (28) 
0

>  <source_current_task>  (28) 
close_aromatic_ring

>  <rotatable_bond_torsions>  (28) 
1,0,2,3;0,2,3,4

>  <scenario>  (28) 
0 0

>  <reason_to_skip>  (28) 
subgraph mismatch

$$$$

     RDKit          3D

  6  5  0  0  0  0  0  0  0  0999 V2000
  -27.8650   -7.7310  -31.7500 C   0  0  0  0  0  0  0  0  0  0  0  0
  -27.6820   -7.0250  -32.9020 N   0  0  0  0  0  0  0  0  0  0  0  0
  -27.6230   -9.1120  -31.7550 N   0  0  0  0  0  0  0  0  0  0  0  0
  -28.7540   -9.8600  -31.5320 C   0  0  0  0  0  0  0  0  0  0  0  0
  -28.7601  -10.6310  -30.3603 C   0  0  0  0  0  0  0  0  0  0  0  0
  -30.0158  -11.4483  -29.9682 C   0  0  0  0  0  0  0  0  0  0  0  0
  1  2  2  0
  1  3  1  0
  3  4  1  0
  4  5  1  0
  5  6  1  0
M  END
>  <name>  (1) 
Car Nac Nd0 Car Car Car

>  <indices>  (1) 
[0, 1, 2]

>  <dummy>  (1) 
1

>  <tasks>  (1) 
probe_placing close_aromatic_ring close_aromatic_ring

>  <current_task>  (1) 
close_aromatic_ring

>  <prot_clashes>  (1) 
2

>  <NBS phar>  (1) 
0.22000000000000003

>  <NBS_non-phar>  (1) 
0.899344539642334

>  <NBS>  (1) 
1.119344539642334

>  <source_stage>  (1) 
scored

>  <source_iter>  (1) 
2

>  <source_parent_mol>  (1) 
0

>  <source_scenario>  (1) 
0 0

>  <source_rank_in_scored_call>  (1) 
1

>  <source_current_task>  (1) 
close_aromatic_ring

>  <rotatable_bond_torsions>  (1) 
1,0,2,3;0,2,3,4

>  <scenario>  (1) 
0 0

>  <reason_to_skip>  (1) 
incorrect arom ring closing

$$$$

     RDKit          3D

  6  5  0  0  0  0  0  0  0  0999 V2000
  -27.8650   -7.7310  -31.7500 C   0  0  0  0  0  0  0  0  0  0  0  0
  -27.6820   -7.0250  -32.9020 N   0  0  0  0  0  0  0  0  0  0  0  0
  -27.6230   -9.1120  -31.7550 N   0  0  0  0  0  0  0  0  0  0  0  0
  -28.7540   -9.8600  -31.5320 C   0  0  0  0  0  0  0  0  0  0  0  0
  -28.7601  -10.6310  -30.3603 C   0  0  0  0  0  0  0  0  0  0  0  0
  -29.9792  -11.5790  -30.0809 C   0  0  0  0  0  0  0  0  0  0  0  0
  1  2  2  0
  1  3  1  0
  3  4  1  0
  4  5  1  0
  5  6  2  0
M  END
>  <name>  (2) 
Car Nac Nd0 Car Car Car

>  <indices>  (2) 
[0, 1, 2]

>  <dummy>  (2) 
1

>  <tasks>  (2) 
probe_placing close_aromatic_ring close_aromatic_ring

>  <current_task>  (2) 
close_aromatic_ring

>  <prot_clashes>  (2) 
2

>  <NBS phar>  (2) 
0.22000000000000003

>  <NBS_non-phar>  (2) 
0.899344539642334

>  <NBS>  (2) 
1.119344539642334

>  <source_stage>  (2) 
scored

>  <source_iter>  (2) 
2

>  <source_parent_mol>  (2) 
0

>  <source_scenario>  (2) 
0 0

>  <source_rank_in_scored_call>  (2) 
1

>  <source_current_task>  (2) 
close_aromatic_ring

>  <rotatable_bond_torsions>  (2) 
1,0,2,3;0,2,3,4

>  <scenario>  (2) 
0 0

>  <reason_to_skip>  (2) 
incorrect arom ring closing

$$$$

     RDKit          3D

  6  5  0  0  0  0  0  0  0  0999 V2000
  -27.8650   -7.7310  -31.7500 C   0  0  0  0  0  0  0  0  0  0  0  0
  -27.6820   -7.0250  -32.9020 N   0  0  0  0  0  0  0  0  0  0  0  0
  -27.6230   -9.1120  -31.7550 N   0  0  0  0  0  0  0  0  0  0  0  0
  -28.7540   -9.8600  -31.5320 C   0  0  0  0  0  0  0  0  0  0  0  0
  -28.7601  -10.6310  -30.3603 C   0  0  0  0  0  0  0  0  0  0  0  0
  -27.9360  -10.8874  -29.2933 N   0  0  0  0  0  0  0  0  0  0  0  0
  1  2  2  0
  1  3  1  0
  3  4  1  0
  4  5  1  0
  5  6  1  0
M  END
>  <name>  (3) 
Car Nac Nd0 Car Car Nac

>  <indices>  (3) 
[0, 1, 2]

>  <dummy>  (3) 
1

>  <tasks>  (3) 
probe_placing close_aromatic_ring close_aromatic_ring

>  <current_task>  (3) 
close_aromatic_ring

>  <prot_clashes>  (3) 
2

>  <NBS phar>  (3) 
0.22000000000000003

>  <NBS_non-phar>  (3) 
0.899344539642334

>  <NBS>  (3) 
1.119344539642334

>  <source_stage>  (3) 
scored

>  <source_iter>  (3) 
2

>  <source_parent_mol>  (3) 
0

>  <source_scenario>  (3) 
0 0

>  <source_rank_in_scored_call>  (3) 
1

>  <source_current_task>  (3) 
close_aromatic_ring

>  <rotatable_bond_torsions>  (3) 
1,0,2,3;0,2,3,4

>  <scenario>  (3) 
0 0

>  <reason_to_skip>  (3) 
bad angles

$$$$

     RDKit          3D

  6  5  0  0  0  0  0  0  0  0999 V2000
  -27.8650   -7.7310  -31.7500 C   0  0  0  0  0  0  0  0  0  0  0  0
  -27.6820   -7.0250  -32.9020 N   0  0  0  0  0  0  0  0  0  0  0  0
  -27.6230   -9.1120  -31.7550 N   0  0  0  0  0  0  0  0  0  0  0  0
  -28.7540   -9.8600  -31.5320 C   0  0  0  0  0  0  0  0  0  0  0  0
  -28.7601  -10.6310  -30.3603 C   0  0  0  0  0  0  0  0  0  0  0  0
  -30.0460  -11.2401  -30.4010 N   0  0  0  0  0  0  0  0  0  0  0  0
  1  2  2  0
  1  3  1  0
  3  4  1  0
  4  5  1  0
  5  6  1  0
M  END
>  <name>  (4) 
Car Nac Nd0 Car Car Nac

>  <indices>  (4) 
[0, 1, 2]

>  <dummy>  (4) 
1

>  <tasks>  (4) 
probe_placing close_aromatic_ring close_aromatic_ring

>  <current_task>  (4) 
close_aromatic_ring

>  <prot_clashes>  (4) 
2

>  <NBS phar>  (4) 
0.22000000000000003

>  <NBS_non-phar>  (4) 
0.899344539642334

>  <NBS>  (4) 
1.119344539642334

>  <source_stage>  (4) 
scored

>  <source_iter>  (4) 
2

>  <source_parent_mol>  (4) 
0

>  <source_scenario>  (4) 
0 0

>  <source_rank_in_scored_call>  (4) 
1

>  <source_current_task>  (4) 
close_aromatic_ring

>  <rotatable_bond_torsions>  (4) 
1,0,2,3;0,2,3,4

>  <scenario>  (4) 
0 0

>  <reason_to_skip>  (4) 
incorrect arom ring closing

$$$$

     RDKit          3D

  6  5  0  0  0  0  0  0  0  0999 V2000
  -27.8650   -7.7310  -31.7500 C   0  0  0  0  0  0  0  0  0  0  0  0
  -27.6820   -7.0250  -32.9020 N   0  0  0  0  0  0  0  0  0  0  0  0
  -27.6230   -9.1120  -31.7550 N   0  0  0  0  0  0  0  0  0  0  0  0
  -28.7540   -9.8600  -31.5320 C   0  0  0  0  0  0  0  0  0  0  0  0
  -28.7601  -10.6310  -30.3603 C   0  0  0  0  0  0  0  0  0  0  0  0
  -27.8885  -10.8700  -29.2297 C   0  0  0  0  0  0  0  0  0  0  0  0
  1  2  2  0
  1  3  1  0
  3  4  1  0
  4  5  1  0
  5  6  1  0
M  END
>  <name>  (5) 
Car Nac Nd0 Car Car Car

>  <indices>  (5) 
[0, 1, 2]

>  <dummy>  (5) 
1

>  <tasks>  (5) 
probe_placing close_aromatic_ring close_aromatic_ring

>  <current_task>  (5) 
close_aromatic_ring

>  <prot_clashes>  (5) 
2

>  <NBS phar>  (5) 
0.22000000000000003

>  <NBS_non-phar>  (5) 
0.899344539642334

>  <NBS>  (5) 
1.119344539642334

>  <source_stage>  (5) 
scored

>  <source_iter>  (5) 
2

>  <source_parent_mol>  (5) 
0

>  <source_scenario>  (5) 
0 0

>  <source_rank_in_scored_call>  (5) 
1

>  <source_current_task>  (5) 
close_aromatic_ring

>  <rotatable_bond_torsions>  (5) 
1,0,2,3;0,2,3,4

>  <scenario>  (5) 
0 0

>  <reason_to_skip>  (5) 
bad angles

$$$$

     RDKit          3D

  6  5  0  0  0  0  0  0  0  0999 V2000
  -27.8650   -7.7310  -31.7500 C   0  0  0  0  0  0  0  0  0  0  0  0
  -27.6820   -7.0250  -32.9020 N   0  0  0  0  0  0  0  0  0  0  0  0
  -27.6230   -9.1120  -31.7550 N   0  0  0  0  0  0  0  0  0  0  0  0
  -28.7540   -9.8600  -31.5320 C   0  0  0  0  0  0  0  0  0  0  0  0
  -28.7601  -10.6310  -30.3603 C   0  0  0  0  0  0  0  0  0  0  0  0
  -29.9338  -11.4303  -30.1201 C   0  0  0  0  0  0  0  0  0  0  0  0
  1  2  2  0
  1  3  1  0
  3  4  1  0
  4  5  1  0
  5  6  1  0
M  END
>  <name>  (6) 
Car Nac Nd0 Car Car Car

>  <indices>  (6) 
[0, 1, 2]

>  <dummy>  (6) 
1

>  <tasks>  (6) 
probe_placing close_aromatic_ring close_aromatic_ring

>  <current_task>  (6) 
close_aromatic_ring

>  <prot_clashes>  (6) 
2

>  <NBS phar>  (6) 
0.22000000000000003

>  <NBS_non-phar>  (6) 
0.899344539642334

>  <NBS>  (6) 
1.119344539642334

>  <source_stage>  (6) 
scored

>  <source_iter>  (6) 
2

>  <source_parent_mol>  (6) 
0

>  <source_scenario>  (6) 
0 0

>  <source_rank_in_scored_call>  (6) 
1

>  <source_current_task>  (6) 
close_aromatic_ring

>  <rotatable_bond_torsions>  (6) 
1,0,2,3;0,2,3,4

>  <scenario>  (6) 
0 0

>  <reason_to_skip>  (6) 
incorrect arom ring closing

$$$$

     RDKit          3D

  6  5  0  0  0  0  0  0  0  0999 V2000
  -27.8650   -7.7310  -31.7500 C   0  0  0  0  0  0  0  0  0  0  0  0
  -27.6820   -7.0250  -32.9020 N   0  0  0  0  0  0  0  0  0  0  0  0
  -27.6230   -9.1120  -31.7550 N   0  0  0  0  0  0  0  0  0  0  0  0
  -28.7540   -9.8600  -31.5320 C   0  0  0  0  0  0  0  0  0  0  0  0
  -28.7601  -10.6310  -30.3603 C   0  0  0  0  0  0  0  0  0  0  0  0
  -27.5131  -10.3625  -29.7814 N   0  0  0  0  0  0  0  0  0  0  0  0
  1  2  2  0
  1  3  1  0
  3  4  1  0
  4  5  1  0
  5  6  1  0
M  END
>  <name>  (7) 
Car Nac Nd0 Car Car Nac

>  <indices>  (7) 
[0, 1, 2]

>  <dummy>  (7) 
1

>  <tasks>  (7) 
probe_placing close_aromatic_ring close_aromatic_ring

>  <current_task>  (7) 
close_aromatic_ring

>  <prot_clashes>  (7) 
2

>  <NBS phar>  (7) 
0.22000000000000003

>  <NBS_non-phar>  (7) 
0.899344539642334

>  <NBS>  (7) 
1.119344539642334

>  <source_stage>  (7) 
scored

>  <source_iter>  (7) 
2

>  <source_parent_mol>  (7) 
0

>  <source_scenario>  (7) 
0 0

>  <source_rank_in_scored_call>  (7) 
1

>  <source_current_task>  (7) 
close_aromatic_ring

>  <rotatable_bond_torsions>  (7) 
1,0,2,3;0,2,3,4

>  <scenario>  (7) 
0 0

>  <reason_to_skip>  (7) 
incorrect arom ring closing

$$$$

     RDKit          3D

  6  5  0  0  0  0  0  0  0  0999 V2000
  -27.8650   -7.7310  -31.7500 C   0  0  0  0  0  0  0  0  0  0  0  0
  -27.6820   -7.0250  -32.9020 N   0  0  0  0  0  0  0  0  0  0  0  0
  -27.6230   -9.1120  -31.7550 N   0  0  0  0  0  0  0  0  0  0  0  0
  -28.7540   -9.8600  -31.5320 C   0  0  0  0  0  0  0  0  0  0  0  0
  -28.7601  -10.6310  -30.3603 C   0  0  0  0  0  0  0  0  0  0  0  0
  -27.5066  -10.3309  -29.7694 C   0  0  0  0  0  0  0  0  0  0  0  0
  1  2  2  0
  1  3  1  0
  3  4  1  0
  4  5  1  0
  5  6  1  0
M  END
>  <name>  (8) 
Car Nac Nd0 Car Car Car

>  <indices>  (8) 
[0, 1, 2]

>  <dummy>  (8) 
1

>  <tasks>  (8) 
probe_placing close_aromatic_ring close_aromatic_ring

>  <current_task>  (8) 
close_aromatic_ring

>  <prot_clashes>  (8) 
2

>  <NBS phar>  (8) 
0.22000000000000003

>  <NBS_non-phar>  (8) 
0.899344539642334

>  <NBS>  (8) 
1.119344539642334

>  <source_stage>  (8) 
scored

>  <source_iter>  (8) 
2

>  <source_parent_mol>  (8) 
0

>  <source_scenario>  (8) 
0 0

>  <source_rank_in_scored_call>  (8) 
1

>  <source_current_task>  (8) 
close_aromatic_ring

>  <rotatable_bond_torsions>  (8) 
1,0,2,3;0,2,3,4

>  <scenario>  (8) 
0 0

>  <reason_to_skip>  (8) 
incorrect arom ring closing

$$$$

     RDKit          3D

  6  5  0  0  0  0  0  0  0  0999 V2000
  -27.8650   -7.7310  -31.7500 C   0  0  0  0  0  0  0  0  0  0  0  0
  -27.6820   -7.0250  -32.9020 N   0  0  0  0  0  0  0  0  0  0  0  0
  -27.6230   -9.1120  -31.7550 N   0  0  0  0  0  0  0  0  0  0  0  0
  -28.7540   -9.8600  -31.5320 C   0  0  0  0  0  0  0  0  0  0  0  0
  -28.7601  -10.6310  -30.3603 C   0  0  0  0  0  0  0  0  0  0  0  0
  -29.8460  -10.5388  -29.3701 C   0  0  0  0  0  0  0  0  0  0  0  0
  1  2  2  0
  1  3  1  0
  3  4  1  0
  4  5  1  0
  5  6  2  0
M  END
>  <name>  (9) 
Car Nac Nd0 Car Car Car

>  <indices>  (9) 
[0, 1, 2]

>  <dummy>  (9) 
1

>  <tasks>  (9) 
probe_placing close_aromatic_ring close_aromatic_ring

>  <current_task>  (9) 
close_aromatic_ring

>  <prot_clashes>  (9) 
2

>  <NBS phar>  (9) 
0.22000000000000003

>  <NBS_non-phar>  (9) 
0.899344539642334

>  <NBS>  (9) 
1.119344539642334

>  <source_stage>  (9) 
scored

>  <source_iter>  (9) 
2

>  <source_parent_mol>  (9) 
0

>  <source_scenario>  (9) 
0 0

>  <source_rank_in_scored_call>  (9) 
1

>  <source_current_task>  (9) 
close_aromatic_ring

>  <rotatable_bond_torsions>  (9) 
1,0,2,3;0,2,3,4

>  <scenario>  (9) 
0 0

>  <reason_to_skip>  (9) 
incorrect arom ring closing

$$$$

     RDKit          3D

  6  5  0  0  0  0  0  0  0  0999 V2000
  -27.8650   -7.7310  -31.7500 C   0  0  0  0  0  0  0  0  0  0  0  0
  -27.6820   -7.0250  -32.9020 N   0  0  0  0  0  0  0  0  0  0  0  0
  -27.6230   -9.1120  -31.7550 N   0  0  0  0  0  0  0  0  0  0  0  0
  -28.7540   -9.8600  -31.5320 C   0  0  0  0  0  0  0  0  0  0  0  0
  -28.7601  -10.6310  -30.3603 C   0  0  0  0  0  0  0  0  0  0  0  0
    0.0000    0.0000    0.0000 O   0  0  0  0  0  0  0  0  0  0  0  0
  1  2  2  0
  1  3  1  0
  3  4  1  0
  4  5  1  0
  5  6  1  0
M  END
>  <name>  (10) 
Car Nac Nd0 Car Car O_a

>  <indices>  (10) 
[0, 1, 2]

>  <dummy>  (10) 
1

>  <tasks>  (10) 
probe_placing close_aromatic_ring close_aromatic_ring

>  <current_task>  (10) 
close_aromatic_ring

>  <prot_clashes>  (10) 
2

>  <NBS phar>  (10) 
0.22000000000000003

>  <NBS_non-phar>  (10) 
0.899344539642334

>  <NBS>  (10) 
1.119344539642334

>  <source_stage>  (10) 
scored

>  <source_iter>  (10) 
2

>  <source_parent_mol>  (10) 
0

>  <source_scenario>  (10) 
0 0

>  <source_rank_in_scored_call>  (10) 
1

>  <source_current_task>  (10) 
close_aromatic_ring

>  <rotatable_bond_torsions>  (10) 
1,0,2,3;0,2,3,4

>  <scenario>  (10) 
0 0

>  <reason_to_skip>  (10) 
some_atom_counter_exceeded

$$$$

     RDKit          3D

  6  5  0  0  0  0  0  0  0  0999 V2000
  -27.8650   -7.7310  -31.7500 C   0  0  0  0  0  0  0  0  0  0  0  0
  -27.6820   -7.0250  -32.9020 N   0  0  0  0  0  0  0  0  0  0  0  0
  -27.6230   -9.1120  -31.7550 N   0  0  0  0  0  0  0  0  0  0  0  0
  -28.7540   -9.8600  -31.5320 C   0  0  0  0  0  0  0  0  0  0  0  0
  -28.7601  -10.6310  -30.3603 C   0  0  0  0  0  0  0  0  0  0  0  0
  -29.9936  -11.3154  -30.3425 N   0  0  0  0  0  0  0  0  0  0  0  0
  1  2  2  0
  1  3  1  0
  3  4  1  0
  4  5  1  0
  5  6  2  0
M  END
>  <name>  (11) 
Car Nac Nd0 Car Car Nac

>  <indices>  (11) 
[0, 1, 2]

>  <dummy>  (11) 
1

>  <tasks>  (11) 
probe_placing close_aromatic_ring close_aromatic_ring

>  <current_task>  (11) 
close_aromatic_ring

>  <prot_clashes>  (11) 
2

>  <NBS phar>  (11) 
0.22000000000000003

>  <NBS_non-phar>  (11) 
0.899344539642334

>  <NBS>  (11) 
1.119344539642334

>  <source_stage>  (11) 
scored

>  <source_iter>  (11) 
2

>  <source_parent_mol>  (11) 
0

>  <source_scenario>  (11) 
0 0

>  <source_rank_in_scored_call>  (11) 
1

>  <source_current_task>  (11) 
close_aromatic_ring

>  <rotatable_bond_torsions>  (11) 
1,0,2,3;0,2,3,4

>  <scenario>  (11) 
0 0

>  <reason_to_skip>  (11) 
incorrect arom ring closing

$$$$

     RDKit          3D

  6  5  0  0  0  0  0  0  0  0999 V2000
  -27.8650   -7.7310  -31.7500 C   0  0  0  0  0  0  0  0  0  0  0  0
  -27.6820   -7.0250  -32.9020 N   0  0  0  0  0  0  0  0  0  0  0  0
  -27.6230   -9.1120  -31.7550 N   0  0  0  0  0  0  0  0  0  0  0  0
  -28.7540   -9.8600  -31.5320 C   0  0  0  0  0  0  0  0  0  0  0  0
  -28.7601  -10.6310  -30.3603 C   0  0  0  0  0  0  0  0  0  0  0  0
  -29.6763  -11.4892  -29.7958 N   0  0  0  0  0  0  0  0  0  0  0  0
  1  2  2  0
  1  3  1  0
  3  4  1  0
  4  5  1  0
  5  6  1  0
M  END
>  <name>  (12) 
Car Nac Nd0 Car Car Nd0

>  <indices>  (12) 
[0, 1, 2]

>  <dummy>  (12) 
1

>  <tasks>  (12) 
probe_placing close_aromatic_ring close_aromatic_ring

>  <current_task>  (12) 
close_aromatic_ring

>  <prot_clashes>  (12) 
2

>  <NBS phar>  (12) 
0.22000000000000003

>  <NBS_non-phar>  (12) 
0.899344539642334

>  <NBS>  (12) 
1.119344539642334

>  <source_stage>  (12) 
scored

>  <source_iter>  (12) 
2

>  <source_parent_mol>  (12) 
0

>  <source_scenario>  (12) 
0 0

>  <source_rank_in_scored_call>  (12) 
1

>  <source_current_task>  (12) 
close_aromatic_ring

>  <rotatable_bond_torsions>  (12) 
1,0,2,3;0,2,3,4

>  <scenario>  (12) 
0 0

>  <reason_to_skip>  (12) 
incorrect arom ring closing

$$$$

     RDKit          3D

  6  5  0  0  0  0  0  0  0  0999 V2000
  -27.8650   -7.7310  -31.7500 C   0  0  0  0  0  0  0  0  0  0  0  0
  -27.6820   -7.0250  -32.9020 N   0  0  0  0  0  0  0  0  0  0  0  0
  -27.6230   -9.1120  -31.7550 N   0  0  0  0  0  0  0  0  0  0  0  0
  -28.7540   -9.8600  -31.5320 C   0  0  0  0  0  0  0  0  0  0  0  0
  -28.7601  -10.6310  -30.3603 C   0  0  0  0  0  0  0  0  0  0  0  0
  -29.8981  -11.4109  -30.0699 N   0  0  0  0  0  0  0  0  0  0  0  0
  1  2  2  0
  1  3  1  0
  3  4  1  0
  4  5  1  0
  5  6  1  0
M  END
>  <name>  (13) 
Car Nac Nd0 Car Car Nac

>  <indices>  (13) 
[0, 1, 2]

>  <dummy>  (13) 
1

>  <tasks>  (13) 
probe_placing close_aromatic_ring close_aromatic_ring

>  <current_task>  (13) 
close_aromatic_ring

>  <prot_clashes>  (13) 
2

>  <NBS phar>  (13) 
0.22000000000000003

>  <NBS_non-phar>  (13) 
0.899344539642334

>  <NBS>  (13) 
1.119344539642334

>  <source_stage>  (13) 
scored

>  <source_iter>  (13) 
2

>  <source_parent_mol>  (13) 
0

>  <source_scenario>  (13) 
0 0

>  <source_rank_in_scored_call>  (13) 
1

>  <source_current_task>  (13) 
close_aromatic_ring

>  <rotatable_bond_torsions>  (13) 
1,0,2,3;0,2,3,4

>  <scenario>  (13) 
0 0

>  <reason_to_skip>  (13) 
incorrect arom ring closing

$$$$

     RDKit          3D

  6  5  0  0  0  0  0  0  0  0999 V2000
  -27.8650   -7.7310  -31.7500 C   0  0  0  0  0  0  0  0  0  0  0  0
  -27.6820   -7.0250  -32.9020 N   0  0  0  0  0  0  0  0  0  0  0  0
  -27.6230   -9.1120  -31.7550 N   0  0  0  0  0  0  0  0  0  0  0  0
  -28.7540   -9.8600  -31.5320 C   0  0  0  0  0  0  0  0  0  0  0  0
  -28.7601  -10.6310  -30.3603 C   0  0  0  0  0  0  0  0  0  0  0  0
    0.0000    0.0000    0.0000 O   0  0  0  0  0  0  0  0  0  0  0  0
  1  2  2  0
  1  3  1  0
  3  4  1  0
  4  5  1  0
  5  6  1  0
M  END
>  <name>  (14) 
Car Nac Nd0 Car Car O_a

>  <indices>  (14) 
[0, 1, 2]

>  <dummy>  (14) 
1

>  <tasks>  (14) 
probe_placing close_aromatic_ring close_aromatic_ring

>  <current_task>  (14) 
close_aromatic_ring

>  <prot_clashes>  (14) 
2

>  <NBS phar>  (14) 
0.22000000000000003

>  <NBS_non-phar>  (14) 
0.899344539642334

>  <NBS>  (14) 
1.119344539642334

>  <source_stage>  (14) 
scored

>  <source_iter>  (14) 
2

>  <source_parent_mol>  (14) 
0

>  <source_scenario>  (14) 
0 0

>  <source_rank_in_scored_call>  (14) 
1

>  <source_current_task>  (14) 
close_aromatic_ring

>  <rotatable_bond_torsions>  (14) 
1,0,2,3;0,2,3,4

>  <scenario>  (14) 
0 0

>  <reason_to_skip>  (14) 
some_atom_counter_exceeded

$$$$

     RDKit          3D

  6  5  0  0  0  0  0  0  0  0999 V2000
  -27.8650   -7.7310  -31.7500 C   0  0  0  0  0  0  0  0  0  0  0  0
  -27.6820   -7.0250  -32.9020 N   0  0  0  0  0  0  0  0  0  0  0  0
  -27.6230   -9.1120  -31.7550 N   0  0  0  0  0  0  0  0  0  0  0  0
  -28.7540   -9.8600  -31.5320 C   0  0  0  0  0  0  0  0  0  0  0  0
  -28.7601  -10.6310  -30.3603 C   0  0  0  0  0  0  0  0  0  0  0  0
  -29.4834  -10.0102  -29.3043 C   0  0  0  0  0  0  0  0  0  0  0  0
  1  2  2  0
  1  3  1  0
  3  4  1  0
  4  5  1  0
  5  6  1  0
M  END
>  <name>  (15) 
Car Nac Nd0 Car Car Car

>  <indices>  (15) 
[0, 1, 2]

>  <dummy>  (15) 
1

>  <tasks>  (15) 
probe_placing close_aromatic_ring close_aromatic_ring

>  <current_task>  (15) 
close_aromatic_ring

>  <prot_clashes>  (15) 
2

>  <NBS phar>  (15) 
0.22000000000000003

>  <NBS_non-phar>  (15) 
0.899344539642334

>  <NBS>  (15) 
1.119344539642334

>  <source_stage>  (15) 
scored

>  <source_iter>  (15) 
2

>  <source_parent_mol>  (15) 
0

>  <source_scenario>  (15) 
0 0

>  <source_rank_in_scored_call>  (15) 
1

>  <source_current_task>  (15) 
close_aromatic_ring

>  <rotatable_bond_torsions>  (15) 
1,0,2,3;0,2,3,4

>  <scenario>  (15) 
0 0

>  <reason_to_skip>  (15) 
incorrect arom ring closing

$$$$

     RDKit          3D

  6  5  0  0  0  0  0  0  0  0999 V2000
  -27.8650   -7.7310  -31.7500 C   0  0  0  0  0  0  0  0  0  0  0  0
  -27.6820   -7.0250  -32.9020 N   0  0  0  0  0  0  0  0  0  0  0  0
  -27.6230   -9.1120  -31.7550 N   0  0  0  0  0  0  0  0  0  0  0  0
  -28.7540   -9.8600  -31.5320 C   0  0  0  0  0  0  0  0  0  0  0  0
  -28.7601  -10.6310  -30.3603 C   0  0  0  0  0  0  0  0  0  0  0  0
  -29.8621  -11.3603  -30.1080 N   0  0  0  0  0  0  0  0  0  0  0  0
  1  2  2  0
  1  3  1  0
  3  4  1  0
  4  5  1  0
  5  6  1  0
M  END
>  <name>  (16) 
Car Nac Nd0 Car Car Nd0

>  <indices>  (16) 
[0, 1, 2]

>  <dummy>  (16) 
1

>  <tasks>  (16) 
probe_placing close_aromatic_ring close_aromatic_ring

>  <current_task>  (16) 
close_aromatic_ring

>  <prot_clashes>  (16) 
2

>  <NBS phar>  (16) 
0.22000000000000003

>  <NBS_non-phar>  (16) 
0.899344539642334

>  <NBS>  (16) 
1.119344539642334

>  <source_stage>  (16) 
scored

>  <source_iter>  (16) 
2

>  <source_parent_mol>  (16) 
0

>  <source_scenario>  (16) 
0 0

>  <source_rank_in_scored_call>  (16) 
1

>  <source_current_task>  (16) 
close_aromatic_ring

>  <rotatable_bond_torsions>  (16) 
1,0,2,3;0,2,3,4

>  <scenario>  (16) 
0 0

>  <reason_to_skip>  (16) 
incorrect arom ring closing

$$$$

     RDKit          3D

  6  5  0  0  0  0  0  0  0  0999 V2000
  -27.8650   -7.7310  -31.7500 C   0  0  0  0  0  0  0  0  0  0  0  0
  -27.6820   -7.0250  -32.9020 N   0  0  0  0  0  0  0  0  0  0  0  0
  -27.6230   -9.1120  -31.7550 N   0  0  0  0  0  0  0  0  0  0  0  0
  -28.7540   -9.8600  -31.5320 C   0  0  0  0  0  0  0  0  0  0  0  0
  -28.7601  -10.6310  -30.3603 C   0  0  0  0  0  0  0  0  0  0  0  0
    0.0000    0.0000    0.0000 S   0  0  0  0  0  0  0  0  0  0  0  0
  1  2  2  0
  1  3  1  0
  3  4  1  0
  4  5  1  0
  5  6  1  0
M  END
>  <name>  (17) 
Car Nac Nd0 Car Car Sul

>  <indices>  (17) 
[0, 1, 2]

>  <dummy>  (17) 
1

>  <tasks>  (17) 
probe_placing close_aromatic_ring close_aromatic_ring

>  <current_task>  (17) 
close_aromatic_ring

>  <prot_clashes>  (17) 
2

>  <NBS phar>  (17) 
0.22000000000000003

>  <NBS_non-phar>  (17) 
0.899344539642334

>  <NBS>  (17) 
1.119344539642334

>  <source_stage>  (17) 
scored

>  <source_iter>  (17) 
2

>  <source_parent_mol>  (17) 
0

>  <source_scenario>  (17) 
0 0

>  <source_rank_in_scored_call>  (17) 
1

>  <source_current_task>  (17) 
close_aromatic_ring

>  <rotatable_bond_torsions>  (17) 
1,0,2,3;0,2,3,4

>  <scenario>  (17) 
0 0

>  <reason_to_skip>  (17) 
some_atom_counter_exceeded

$$$$

     RDKit          3D

  6  5  0  0  0  0  0  0  0  0999 V2000
  -27.8650   -7.7310  -31.7500 C   0  0  0  0  0  0  0  0  0  0  0  0
  -27.6820   -7.0250  -32.9020 N   0  0  0  0  0  0  0  0  0  0  0  0
  -27.6230   -9.1120  -31.7550 N   0  0  0  0  0  0  0  0  0  0  0  0
  -28.7540   -9.8600  -31.5320 C   0  0  0  0  0  0  0  0  0  0  0  0
  -28.7601  -10.6310  -30.3603 C   0  0  0  0  0  0  0  0  0  0  0  0
  -29.6023  -10.3197  -29.2096 C   0  0  0  0  0  0  0  0  0  0  0  0
  1  2  2  0
  1  3  1  0
  3  4  1  0
  4  5  1  0
  5  6  1  0
M  END
>  <name>  (18) 
Car Nac Nd0 Car Car Car

>  <indices>  (18) 
[0, 1, 2]

>  <dummy>  (18) 
1

>  <tasks>  (18) 
probe_placing close_aromatic_ring close_aromatic_ring

>  <current_task>  (18) 
close_aromatic_ring

>  <prot_clashes>  (18) 
2

>  <NBS phar>  (18) 
0.22000000000000003

>  <NBS_non-phar>  (18) 
0.899344539642334

>  <NBS>  (18) 
1.119344539642334

>  <source_stage>  (18) 
scored

>  <source_iter>  (18) 
2

>  <source_parent_mol>  (18) 
0

>  <source_scenario>  (18) 
0 0

>  <source_rank_in_scored_call>  (18) 
1

>  <source_current_task>  (18) 
close_aromatic_ring

>  <rotatable_bond_torsions>  (18) 
1,0,2,3;0,2,3,4

>  <scenario>  (18) 
0 0

>  <reason_to_skip>  (18) 
incorrect arom ring closing

$$$$

     RDKit          3D

  6  5  0  0  0  0  0  0  0  0999 V2000
  -27.8650   -7.7310  -31.7500 C   0  0  0  0  0  0  0  0  0  0  0  0
  -27.6820   -7.0250  -32.9020 N   0  0  0  0  0  0  0  0  0  0  0  0
  -27.6230   -9.1120  -31.7550 N   0  0  0  0  0  0  0  0  0  0  0  0
  -28.7540   -9.8600  -31.5320 C   0  0  0  0  0  0  0  0  0  0  0  0
  -28.7601  -10.6310  -30.3603 C   0  0  0  0  0  0  0  0  0  0  0  0
  -27.9927  -10.8430  -29.3257 N   0  0  0  0  0  0  0  0  0  0  0  0
  1  2  2  0
  1  3  1  0
  3  4  1  0
  4  5  1  0
  5  6  1  0
M  END
>  <name>  (19) 
Car Nac Nd0 Car Car Nd0

>  <indices>  (19) 
[0, 1, 2]

>  <dummy>  (19) 
1

>  <tasks>  (19) 
probe_placing close_aromatic_ring close_aromatic_ring

>  <current_task>  (19) 
close_aromatic_ring

>  <prot_clashes>  (19) 
2

>  <NBS phar>  (19) 
0.22000000000000003

>  <NBS_non-phar>  (19) 
0.899344539642334

>  <NBS>  (19) 
1.119344539642334

>  <source_stage>  (19) 
scored

>  <source_iter>  (19) 
2

>  <source_parent_mol>  (19) 
0

>  <source_scenario>  (19) 
0 0

>  <source_rank_in_scored_call>  (19) 
1

>  <source_current_task>  (19) 
close_aromatic_ring

>  <rotatable_bond_torsions>  (19) 
1,0,2,3;0,2,3,4

>  <scenario>  (19) 
0 0

>  <reason_to_skip>  (19) 
bad angles

$$$$

     RDKit          3D

  6  5  0  0  0  0  0  0  0  0999 V2000
  -27.8650   -7.7310  -31.7500 C   0  0  0  0  0  0  0  0  0  0  0  0
  -27.6820   -7.0250  -32.9020 N   0  0  0  0  0  0  0  0  0  0  0  0
  -27.6230   -9.1120  -31.7550 N   0  0  0  0  0  0  0  0  0  0  0  0
  -28.7540   -9.8600  -31.5320 C   0  0  0  0  0  0  0  0  0  0  0  0
  -28.7601  -10.6310  -30.3603 C   0  0  0  0  0  0  0  0  0  0  0  0
    0.0000    0.0000    0.0000 O   0  0  0  0  0  0  0  0  0  0  0  0
  1  2  2  0
  1  3  1  0
  3  4  1  0
  4  5  1  0
  5  6  1  0
M  END
>  <name>  (20) 
Car Nac Nd0 Car Car O_a

>  <indices>  (20) 
[0, 1, 2]

>  <dummy>  (20) 
1

>  <tasks>  (20) 
probe_placing close_aromatic_ring close_aromatic_ring

>  <current_task>  (20) 
close_aromatic_ring

>  <prot_clashes>  (20) 
2

>  <NBS phar>  (20) 
0.22000000000000003

>  <NBS_non-phar>  (20) 
0.899344539642334

>  <NBS>  (20) 
1.119344539642334

>  <source_stage>  (20) 
scored

>  <source_iter>  (20) 
2

>  <source_parent_mol>  (20) 
0

>  <source_scenario>  (20) 
0 0

>  <source_rank_in_scored_call>  (20) 
1

>  <source_current_task>  (20) 
close_aromatic_ring

>  <rotatable_bond_torsions>  (20) 
1,0,2,3;0,2,3,4

>  <scenario>  (20) 
0 0

>  <reason_to_skip>  (20) 
some_atom_counter_exceeded

$$$$

     RDKit          3D

  6  5  0  0  0  0  0  0  0  0999 V2000
  -27.8650   -7.7310  -31.7500 C   0  0  0  0  0  0  0  0  0  0  0  0
  -27.6820   -7.0250  -32.9020 N   0  0  0  0  0  0  0  0  0  0  0  0
  -27.6230   -9.1120  -31.7550 N   0  0  0  0  0  0  0  0  0  0  0  0
  -28.7540   -9.8600  -31.5320 C   0  0  0  0  0  0  0  0  0  0  0  0
  -28.7601  -10.6310  -30.3603 C   0  0  0  0  0  0  0  0  0  0  0  0
    0.0000    0.0000    0.0000 S   0  0  0  0  0  0  0  0  0  0  0  0
  1  2  2  0
  1  3  1  0
  3  4  1  0
  4  5  1  0
  5  6  1  0
M  END
>  <name>  (21) 
Car Nac Nd0 Car Car Sul

>  <indices>  (21) 
[0, 1, 2]

>  <dummy>  (21) 
1

>  <tasks>  (21) 
probe_placing close_aromatic_ring close_aromatic_ring

>  <current_task>  (21) 
close_aromatic_ring

>  <prot_clashes>  (21) 
2

>  <NBS phar>  (21) 
0.22000000000000003

>  <NBS_non-phar>  (21) 
0.899344539642334

>  <NBS>  (21) 
1.119344539642334

>  <source_stage>  (21) 
scored

>  <source_iter>  (21) 
2

>  <source_parent_mol>  (21) 
0

>  <source_scenario>  (21) 
0 0

>  <source_rank_in_scored_call>  (21) 
1

>  <source_current_task>  (21) 
close_aromatic_ring

>  <rotatable_bond_torsions>  (21) 
1,0,2,3;0,2,3,4

>  <scenario>  (21) 
0 0

>  <reason_to_skip>  (21) 
some_atom_counter_exceeded

$$$$

     RDKit          3D

  6  5  0  0  0  0  0  0  0  0999 V2000
  -27.8650   -7.7310  -31.7500 C   0  0  0  0  0  0  0  0  0  0  0  0
  -27.6820   -7.0250  -32.9020 N   0  0  0  0  0  0  0  0  0  0  0  0
  -27.6230   -9.1120  -31.7550 N   0  0  0  0  0  0  0  0  0  0  0  0
  -28.7540   -9.8600  -31.5320 C   0  0  0  0  0  0  0  0  0  0  0  0
  -28.7601  -10.6310  -30.3603 C   0  0  0  0  0  0  0  0  0  0  0  0
    0.0000    0.0000    0.0000 S   0  0  0  0  0  0  0  0  0  0  0  0
  1  2  2  0
  1  3  1  0
  3  4  1  0
  4  5  1  0
  5  6  1  0
M  END
>  <name>  (22) 
Car Nac Nd0 Car Car Sul

>  <indices>  (22) 
[0, 1, 2]

>  <dummy>  (22) 
1

>  <tasks>  (22) 
probe_placing close_aromatic_ring close_aromatic_ring

>  <current_task>  (22) 
close_aromatic_ring

>  <prot_clashes>  (22) 
2

>  <NBS phar>  (22) 
0.22000000000000003

>  <NBS_non-phar>  (22) 
0.899344539642334

>  <NBS>  (22) 
1.119344539642334

>  <source_stage>  (22) 
scored

>  <source_iter>  (22) 
2

>  <source_parent_mol>  (22) 
0

>  <source_scenario>  (22) 
0 0

>  <source_rank_in_scored_call>  (22) 
1

>  <source_current_task>  (22) 
close_aromatic_ring

>  <rotatable_bond_torsions>  (22) 
1,0,2,3;0,2,3,4

>  <scenario>  (22) 
0 0

>  <reason_to_skip>  (22) 
some_atom_counter_exceeded

$$$$

     RDKit          3D

  6  5  0  0  0  0  0  0  0  0999 V2000
  -27.8650   -7.7310  -31.7500 C   0  0  0  0  0  0  0  0  0  0  0  0
  -27.6820   -7.0250  -32.9020 N   0  0  0  0  0  0  0  0  0  0  0  0
  -27.6230   -9.1120  -31.7550 N   0  0  0  0  0  0  0  0  0  0  0  0
  -28.7540   -9.8600  -31.5320 C   0  0  0  0  0  0  0  0  0  0  0  0
  -28.7601  -10.6310  -30.3603 C   0  0  0  0  0  0  0  0  0  0  0  0
  -28.8191  -12.0071  -30.5443 C   0  0  0  0  0  0  0  0  0  0  0  0
  1  2  2  0
  1  3  1  0
  3  4  1  0
  4  5  1  0
  5  6  2  0
M  END
>  <name>  (23) 
Car Nac Nd0 Car Car Car

>  <indices>  (23) 
[0, 1, 2]

>  <dummy>  (23) 
1

>  <tasks>  (23) 
probe_placing close_aromatic_ring close_aromatic_ring

>  <current_task>  (23) 
close_aromatic_ring

>  <prot_clashes>  (23) 
2

>  <NBS phar>  (23) 
0.22000000000000003

>  <NBS_non-phar>  (23) 
0.899344539642334

>  <NBS>  (23) 
1.119344539642334

>  <source_stage>  (23) 
scored

>  <source_iter>  (23) 
2

>  <source_parent_mol>  (23) 
0

>  <source_scenario>  (23) 
0 0

>  <source_rank_in_scored_call>  (23) 
1

>  <source_current_task>  (23) 
close_aromatic_ring

>  <rotatable_bond_torsions>  (23) 
1,0,2,3;0,2,3,4

>  <scenario>  (23) 
0 0

>  <reason_to_skip>  (23) 
incorrect arom ring closing

$$$$

     RDKit          3D

  6  5  0  0  0  0  0  0  0  0999 V2000
  -27.8650   -7.7310  -31.7500 C   0  0  0  0  0  0  0  0  0  0  0  0
  -27.6820   -7.0250  -32.9020 N   0  0  0  0  0  0  0  0  0  0  0  0
  -27.6230   -9.1120  -31.7550 N   0  0  0  0  0  0  0  0  0  0  0  0
  -28.7540   -9.8600  -31.5320 C   0  0  0  0  0  0  0  0  0  0  0  0
  -28.7601  -10.6310  -30.3603 C   0  0  0  0  0  0  0  0  0  0  0  0
    0.0000    0.0000    0.0000 S   0  0  0  0  0  0  0  0  0  0  0  0
  1  2  2  0
  1  3  1  0
  3  4  1  0
  4  5  1  0
  5  6  1  0
M  END
>  <name>  (24) 
Car Nac Nd0 Car Car Sul

>  <indices>  (24) 
[0, 1, 2]

>  <dummy>  (24) 
1

>  <tasks>  (24) 
probe_placing close_aromatic_ring close_aromatic_ring

>  <current_task>  (24) 
close_aromatic_ring

>  <prot_clashes>  (24) 
2

>  <NBS phar>  (24) 
0.22000000000000003

>  <NBS_non-phar>  (24) 
0.899344539642334

>  <NBS>  (24) 
1.119344539642334

>  <source_stage>  (24) 
scored

>  <source_iter>  (24) 
2

>  <source_parent_mol>  (24) 
0

>  <source_scenario>  (24) 
0 0

>  <source_rank_in_scored_call>  (24) 
1

>  <source_current_task>  (24) 
close_aromatic_ring

>  <rotatable_bond_torsions>  (24) 
1,0,2,3;0,2,3,4

>  <scenario>  (24) 
0 0

>  <reason_to_skip>  (24) 
some_atom_counter_exceeded

$$$$

     RDKit          3D

  6  5  0  0  0  0  0  0  0  0999 V2000
  -27.8650   -7.7310  -31.7500 C   0  0  0  0  0  0  0  0  0  0  0  0
  -27.6820   -7.0250  -32.9020 N   0  0  0  0  0  0  0  0  0  0  0  0
  -27.6230   -9.1120  -31.7550 N   0  0  0  0  0  0  0  0  0  0  0  0
  -28.7540   -9.8600  -31.5320 C   0  0  0  0  0  0  0  0  0  0  0  0
  -28.7601  -10.6310  -30.3603 C   0  0  0  0  0  0  0  0  0  0  0  0
    0.0000    0.0000    0.0000 O   0  0  0  0  0  0  0  0  0  0  0  0
  1  2  2  0
  1  3  1  0
  3  4  1  0
  4  5  1  0
  5  6  1  0
M  END
>  <name>  (25) 
Car Nac Nd0 Car Car O_a

>  <indices>  (25) 
[0, 1, 2]

>  <dummy>  (25) 
1

>  <tasks>  (25) 
probe_placing close_aromatic_ring close_aromatic_ring

>  <current_task>  (25) 
close_aromatic_ring

>  <prot_clashes>  (25) 
2

>  <NBS phar>  (25) 
0.22000000000000003

>  <NBS_non-phar>  (25) 
0.899344539642334

>  <NBS>  (25) 
1.119344539642334

>  <source_stage>  (25) 
scored

>  <source_iter>  (25) 
2

>  <source_parent_mol>  (25) 
0

>  <source_scenario>  (25) 
0 0

>  <source_rank_in_scored_call>  (25) 
1

>  <source_current_task>  (25) 
close_aromatic_ring

>  <rotatable_bond_torsions>  (25) 
1,0,2,3;0,2,3,4

>  <scenario>  (25) 
0 0

>  <reason_to_skip>  (25) 
some_atom_counter_exceeded

$$$$

     RDKit          3D

  6  5  0  0  0  0  0  0  0  0999 V2000
  -27.8650   -7.7310  -31.7500 C   0  0  0  0  0  0  0  0  0  0  0  0
  -27.6820   -7.0250  -32.9020 N   0  0  0  0  0  0  0  0  0  0  0  0
  -27.6230   -9.1120  -31.7550 N   0  0  0  0  0  0  0  0  0  0  0  0
  -28.7540   -9.8600  -31.5320 C   0  0  0  0  0  0  0  0  0  0  0  0
  -28.7601  -10.6310  -30.3603 C   0  0  0  0  0  0  0  0  0  0  0  0
    0.0000    0.0000    0.0000 S   0  0  0  0  0  0  0  0  0  0  0  0
  1  2  2  0
  1  3  1  0
  3  4  1  0
  4  5  1  0
  5  6  1  0
M  END
>  <name>  (26) 
Car Nac Nd0 Car Car Sul

>  <indices>  (26) 
[0, 1, 2]

>  <dummy>  (26) 
1

>  <tasks>  (26) 
probe_placing close_aromatic_ring close_aromatic_ring

>  <current_task>  (26) 
close_aromatic_ring

>  <prot_clashes>  (26) 
2

>  <NBS phar>  (26) 
0.22000000000000003

>  <NBS_non-phar>  (26) 
0.899344539642334

>  <NBS>  (26) 
1.119344539642334

>  <source_stage>  (26) 
scored

>  <source_iter>  (26) 
2

>  <source_parent_mol>  (26) 
0

>  <source_scenario>  (26) 
0 0

>  <source_rank_in_scored_call>  (26) 
1

>  <source_current_task>  (26) 
close_aromatic_ring

>  <rotatable_bond_torsions>  (26) 
1,0,2,3;0,2,3,4

>  <scenario>  (26) 
0 0

>  <reason_to_skip>  (26) 
some_atom_counter_exceeded

$$$$

     RDKit          3D

  6  5  0  0  0  0  0  0  0  0999 V2000
  -27.8650   -7.7310  -31.7500 C   0  0  0  0  0  0  0  0  0  0  0  0
  -27.6820   -7.0250  -32.9020 N   0  0  0  0  0  0  0  0  0  0  0  0
  -27.6230   -9.1120  -31.7550 N   0  0  0  0  0  0  0  0  0  0  0  0
  -28.7540   -9.8600  -31.5320 C   0  0  0  0  0  0  0  0  0  0  0  0
  -28.7601  -10.6310  -30.3603 C   0  0  0  0  0  0  0  0  0  0  0  0
    0.0000    0.0000    0.0000 S   0  0  0  0  0  0  0  0  0  0  0  0
  1  2  2  0
  1  3  1  0
  3  4  1  0
  4  5  1  0
  5  6  1  0
M  END
>  <name>  (27) 
Car Nac Nd0 Car Car Sul

>  <indices>  (27) 
[0, 1, 2]

>  <dummy>  (27) 
1

>  <tasks>  (27) 
probe_placing close_aromatic_ring close_aromatic_ring

>  <current_task>  (27) 
close_aromatic_ring

>  <prot_clashes>  (27) 
2

>  <NBS phar>  (27) 
0.22000000000000003

>  <NBS_non-phar>  (27) 
0.899344539642334

>  <NBS>  (27) 
1.119344539642334

>  <source_stage>  (27) 
scored

>  <source_iter>  (27) 
2

>  <source_parent_mol>  (27) 
0

>  <source_scenario>  (27) 
0 0

>  <source_rank_in_scored_call>  (27) 
1

>  <source_current_task>  (27) 
close_aromatic_ring

>  <rotatable_bond_torsions>  (27) 
1,0,2,3;0,2,3,4

>  <scenario>  (27) 
0 0

>  <reason_to_skip>  (27) 
some_atom_counter_exceeded

$$$$

     RDKit          3D

  6  5  0  0  0  0  0  0  0  0999 V2000
  -27.8650   -7.7310  -31.7500 C   0  0  0  0  0  0  0  0  0  0  0  0
  -27.6820   -7.0250  -32.9020 N   0  0  0  0  0  0  0  0  0  0  0  0
  -27.6230   -9.1120  -31.7550 N   0  0  0  0  0  0  0  0  0  0  0  0
  -28.7540   -9.8600  -31.5320 C   0  0  0  0  0  0  0  0  0  0  0  0
  -28.7601  -10.6310  -30.3603 C   0  0  0  0  0  0  0  0  0  0  0  0
  -28.9121  -12.0398  -30.4355 C   0  0  0  0  0  0  0  0  0  0  0  0
  1  2  2  0
  1  3  1  0
  3  4  1  0
  4  5  1  0
  5  6  1  0
M  END
>  <name>  (28) 
Car Nac Nd0 Car Car Car

>  <indices>  (28) 
[0, 1, 2]

>  <dummy>  (28) 
1

>  <tasks>  (28) 
probe_placing close_aromatic_ring close_aromatic_ring

>  <current_task>  (28) 
close_aromatic_ring

>  <prot_clashes>  (28) 
2

>  <NBS phar>  (28) 
0.22000000000000003

>  <NBS_non-phar>  (28) 
0.899344539642334

>  <NBS>  (28) 
1.119344539642334

>  <source_stage>  (28) 
scored

>  <source_iter>  (28) 
2

>  <source_parent_mol>  (28) 
0

>  <source_scenario>  (28) 
0 0

>  <source_rank_in_scored_call>  (28) 
1

>  <source_current_task>  (28) 
close_aromatic_ring

>  <rotatable_bond_torsions>  (28) 
1,0,2,3;0,2,3,4

>  <scenario>  (28) 
0 0

>  <reason_to_skip>  (28) 
incorrect arom ring closing

$$$$

     RDKit          3D

  6  5  0  0  0  0  0  0  0  0999 V2000
  -27.8650   -7.7310  -31.7500 C   0  0  0  0  0  0  0  0  0  0  0  0
  -27.6820   -7.0250  -32.9020 N   0  0  0  0  0  0  0  0  0  0  0  0
  -27.6230   -9.1120  -31.7550 N   0  0  0  0  0  0  0  0  0  0  0  0
  -28.7540   -9.8600  -31.5320 C   0  0  0  0  0  0  0  0  0  0  0  0
  -28.7601  -10.6310  -30.3603 C   0  0  0  0  0  0  0  0  0  0  0  0
  -28.3083  -12.1201  -30.4262 C   0  0  0  0  0  0  0  0  0  0  0  0
  1  2  2  0
  1  3  1  0
  3  4  1  0
  4  5  1  0
  5  6  1  0
M  END
>  <name>  (29) 
Car Nac Nd0 Car Car Car

>  <indices>  (29) 
[0, 1, 2]

>  <dummy>  (29) 
1

>  <tasks>  (29) 
probe_placing close_aromatic_ring close_aromatic_ring

>  <current_task>  (29) 
close_aromatic_ring

>  <prot_clashes>  (29) 
2

>  <NBS phar>  (29) 
0.22000000000000003

>  <NBS_non-phar>  (29) 
0.899344539642334

>  <NBS>  (29) 
1.119344539642334

>  <source_stage>  (29) 
scored

>  <source_iter>  (29) 
2

>  <source_parent_mol>  (29) 
0

>  <source_scenario>  (29) 
0 0

>  <source_rank_in_scored_call>  (29) 
1

>  <source_current_task>  (29) 
close_aromatic_ring

>  <rotatable_bond_torsions>  (29) 
1,0,2,3;0,2,3,4

>  <scenario>  (29) 
0 0

>  <reason_to_skip>  (29) 
incorrect arom ring closing

$$$$

     RDKit          3D

  6  5  0  0  0  0  0  0  0  0999 V2000
  -27.8650   -7.7310  -31.7500 C   0  0  0  0  0  0  0  0  0  0  0  0
  -27.6820   -7.0250  -32.9020 N   0  0  0  0  0  0  0  0  0  0  0  0
  -27.6230   -9.1120  -31.7550 N   0  0  0  0  0  0  0  0  0  0  0  0
  -28.7540   -9.8600  -31.5320 C   0  0  0  0  0  0  0  0  0  0  0  0
  -28.7601  -10.6310  -30.3603 C   0  0  0  0  0  0  0  0  0  0  0  0
  -27.7315  -10.7033  -29.4217 C   0  0  0  0  0  0  0  0  0  0  0  0
  1  2  2  0
  1  3  1  0
  3  4  1  0
  4  5  1  0
  5  6  2  0
M  END
>  <name>  (30) 
Car Nac Nd0 Car Car Car

>  <indices>  (30) 
[0, 1, 2]

>  <dummy>  (30) 
1

>  <tasks>  (30) 
probe_placing close_aromatic_ring close_aromatic_ring

>  <current_task>  (30) 
close_aromatic_ring

>  <prot_clashes>  (30) 
2

>  <NBS phar>  (30) 
0.22000000000000003

>  <NBS_non-phar>  (30) 
0.899344539642334

>  <NBS>  (30) 
1.119344539642334

>  <source_stage>  (30) 
scored

>  <source_iter>  (30) 
2

>  <source_parent_mol>  (30) 
0

>  <source_scenario>  (30) 
0 0

>  <source_rank_in_scored_call>  (30) 
1

>  <source_current_task>  (30) 
close_aromatic_ring

>  <rotatable_bond_torsions>  (30) 
1,0,2,3;0,2,3,4

>  <scenario>  (30) 
0 0

>  <reason_to_skip>  (30) 
subgraph mismatch

$$$$

     RDKit          3D

  6  5  0  0  0  0  0  0  0  0999 V2000
  -27.8650   -7.7310  -31.7500 C   0  0  0  0  0  0  0  0  0  0  0  0
  -27.6820   -7.0250  -32.9020 N   0  0  0  0  0  0  0  0  0  0  0  0
  -27.6230   -9.1120  -31.7550 N   0  0  0  0  0  0  0  0  0  0  0  0
  -28.7540   -9.8600  -31.5320 C   0  0  0  0  0  0  0  0  0  0  0  0
  -28.7601  -10.6310  -30.3603 C   0  0  0  0  0  0  0  0  0  0  0  0
  -27.7922  -10.7477  -29.3973 C   0  0  0  0  0  0  0  0  0  0  0  0
  1  2  2  0
  1  3  1  0
  3  4  1  0
  4  5  1  0
  5  6  1  0
M  END
>  <name>  (31) 
Car Nac Nd0 Car Car Car

>  <indices>  (31) 
[0, 1, 2]

>  <dummy>  (31) 
1

>  <tasks>  (31) 
probe_placing close_aromatic_ring close_aromatic_ring

>  <current_task>  (31) 
close_aromatic_ring

>  <prot_clashes>  (31) 
2

>  <NBS phar>  (31) 
0.22000000000000003

>  <NBS_non-phar>  (31) 
0.899344539642334

>  <NBS>  (31) 
1.119344539642334

>  <source_stage>  (31) 
scored

>  <source_iter>  (31) 
2

>  <source_parent_mol>  (31) 
0

>  <source_scenario>  (31) 
0 0

>  <source_rank_in_scored_call>  (31) 
1

>  <source_current_task>  (31) 
close_aromatic_ring

>  <rotatable_bond_torsions>  (31) 
1,0,2,3;0,2,3,4

>  <scenario>  (31) 
0 0

>  <reason_to_skip>  (31) 
subgraph mismatch

$$$$

     RDKit          3D

  6  5  0  0  0  0  0  0  0  0999 V2000
  -27.8650   -7.7310  -31.7500 C   0  0  0  0  0  0  0  0  0  0  0  0
  -27.6820   -7.0250  -32.9020 N   0  0  0  0  0  0  0  0  0  0  0  0
  -27.6230   -9.1120  -31.7550 N   0  0  0  0  0  0  0  0  0  0  0  0
  -28.7540   -9.8600  -31.5320 C   0  0  0  0  0  0  0  0  0  0  0  0
  -28.7601  -10.6310  -30.3603 C   0  0  0  0  0  0  0  0  0  0  0  0
  -27.7029  -10.6961  -29.5301 N   0  0  0  0  0  0  0  0  0  0  0  0
  1  2  2  0
  1  3  1  0
  3  4  1  0
  4  5  1  0
  5  6  2  0
M  END
>  <name>  (32) 
Car Nac Nd0 Car Car Nac

>  <indices>  (32) 
[0, 1, 2]

>  <dummy>  (32) 
1

>  <tasks>  (32) 
probe_placing close_aromatic_ring close_aromatic_ring

>  <current_task>  (32) 
close_aromatic_ring

>  <prot_clashes>  (32) 
2

>  <NBS phar>  (32) 
0.22000000000000003

>  <NBS_non-phar>  (32) 
0.899344539642334

>  <NBS>  (32) 
1.119344539642334

>  <source_stage>  (32) 
scored

>  <source_iter>  (32) 
2

>  <source_parent_mol>  (32) 
0

>  <source_scenario>  (32) 
0 0

>  <source_rank_in_scored_call>  (32) 
1

>  <source_current_task>  (32) 
close_aromatic_ring

>  <rotatable_bond_torsions>  (32) 
1,0,2,3;0,2,3,4

>  <scenario>  (32) 
0 0

>  <reason_to_skip>  (32) 
subgraph mismatch

$$$$

     RDKit          3D

  6  5  0  0  0  0  0  0  0  0999 V2000
  -27.8650   -7.7310  -31.7500 C   0  0  0  0  0  0  0  0  0  0  0  0
  -27.6820   -7.0250  -32.9020 N   0  0  0  0  0  0  0  0  0  0  0  0
  -27.6230   -9.1120  -31.7550 N   0  0  0  0  0  0  0  0  0  0  0  0
  -28.7540   -9.8600  -31.5320 C   0  0  0  0  0  0  0  0  0  0  0  0
  -28.7601  -10.6310  -30.3603 C   0  0  0  0  0  0  0  0  0  0  0  0
  -27.8411  -10.7844  -29.3886 N   0  0  0  0  0  0  0  0  0  0  0  0
  1  2  2  0
  1  3  1  0
  3  4  1  0
  4  5  1  0
  5  6  1  0
M  END
>  <name>  (33) 
Car Nac Nd0 Car Car Nac

>  <indices>  (33) 
[0, 1, 2]

>  <dummy>  (33) 
1

>  <tasks>  (33) 
probe_placing close_aromatic_ring close_aromatic_ring

>  <current_task>  (33) 
close_aromatic_ring

>  <prot_clashes>  (33) 
2

>  <NBS phar>  (33) 
0.22000000000000003

>  <NBS_non-phar>  (33) 
0.899344539642334

>  <NBS>  (33) 
1.119344539642334

>  <source_stage>  (33) 
scored

>  <source_iter>  (33) 
2

>  <source_parent_mol>  (33) 
0

>  <source_scenario>  (33) 
0 0

>  <source_rank_in_scored_call>  (33) 
1

>  <source_current_task>  (33) 
close_aromatic_ring

>  <rotatable_bond_torsions>  (33) 
1,0,2,3;0,2,3,4

>  <scenario>  (33) 
0 0

>  <reason_to_skip>  (33) 
subgraph mismatch

$$$$

     RDKit          3D

  6  5  0  0  0  0  0  0  0  0999 V2000
  -27.8650   -7.7310  -31.7500 C   0  0  0  0  0  0  0  0  0  0  0  0
  -27.6820   -7.0250  -32.9020 N   0  0  0  0  0  0  0  0  0  0  0  0
  -27.6230   -9.1120  -31.7550 N   0  0  0  0  0  0  0  0  0  0  0  0
  -28.7540   -9.8600  -31.5320 C   0  0  0  0  0  0  0  0  0  0  0  0
  -28.7601  -10.6310  -30.3603 C   0  0  0  0  0  0  0  0  0  0  0  0
  -27.7432  -10.6288  -29.4939 N   0  0  0  0  0  0  0  0  0  0  0  0
  1  2  2  0
  1  3  1  0
  3  4  1  0
  4  5  1  0
  5  6  1  0
M  END
>  <name>  (34) 
Car Nac Nd0 Car Car Nd0

>  <indices>  (34) 
[0, 1, 2]

>  <dummy>  (34) 
1

>  <tasks>  (34) 
probe_placing close_aromatic_ring close_aromatic_ring

>  <current_task>  (34) 
close_aromatic_ring

>  <prot_clashes>  (34) 
2

>  <NBS phar>  (34) 
0.22000000000000003

>  <NBS_non-phar>  (34) 
0.899344539642334

>  <NBS>  (34) 
1.119344539642334

>  <source_stage>  (34) 
scored

>  <source_iter>  (34) 
2

>  <source_parent_mol>  (34) 
0

>  <source_scenario>  (34) 
0 0

>  <source_rank_in_scored_call>  (34) 
1

>  <source_current_task>  (34) 
close_aromatic_ring

>  <rotatable_bond_torsions>  (34) 
1,0,2,3;0,2,3,4

>  <scenario>  (34) 
0 0

>  <reason_to_skip>  (34) 
subgraph mismatch

$$$$

     RDKit          3D

  6  5  0  0  0  0  0  0  0  0999 V2000
  -27.8650   -7.7310  -31.7500 C   0  0  0  0  0  0  0  0  0  0  0  0
  -27.6820   -7.0250  -32.9020 N   0  0  0  0  0  0  0  0  0  0  0  0
  -27.6230   -9.1120  -31.7550 N   0  0  0  0  0  0  0  0  0  0  0  0
  -28.7540   -9.8600  -31.5320 C   0  0  0  0  0  0  0  0  0  0  0  0
  -28.5566  -11.2637  -32.0069 C   0  0  0  0  0  0  0  0  0  0  0  0
  -29.7147  -12.2612  -31.7529 C   0  0  0  0  0  0  0  0  0  0  0  0
  1  2  2  0
  1  3  1  0
  3  4  1  0
  4  5  1  0
  5  6  1  0
M  END
>  <name>  (1) 
Car Nac Nd0 Car Car Car

>  <indices>  (1) 
[0, 1, 2]

>  <dummy>  (1) 
1

>  <tasks>  (1) 
probe_placing close_aromatic_ring close_aromatic_ring

>  <current_task>  (1) 
close_aromatic_ring

>  <prot_clashes>  (1) 
1

>  <NBS phar>  (1) 
0.22000000000000003

>  <NBS_non-phar>  (1) 
0.857022762298584

>  <NBS>  (1) 
1.077022762298584

>  <source_stage>  (1) 
scored

>  <source_iter>  (1) 
2

>  <source_parent_mol>  (1) 
0

>  <source_scenario>  (1) 
0 0

>  <source_rank_in_scored_call>  (1) 
2

>  <source_current_task>  (1) 
close_aromatic_ring

>  <rotatable_bond_torsions>  (1) 
1,0,2,3;0,2,3,4

>  <scenario>  (1) 
0 0

>  <reason_to_skip>  (1) 
incorrect arom ring closing

$$$$

     RDKit          3D

  6  5  0  0  0  0  0  0  0  0999 V2000
  -27.8650   -7.7310  -31.7500 C   0  0  0  0  0  0  0  0  0  0  0  0
  -27.6820   -7.0250  -32.9020 N   0  0  0  0  0  0  0  0  0  0  0  0
  -27.6230   -9.1120  -31.7550 N   0  0  0  0  0  0  0  0  0  0  0  0
  -28.7540   -9.8600  -31.5320 C   0  0  0  0  0  0  0  0  0  0  0  0
  -28.5566  -11.2637  -32.0069 C   0  0  0  0  0  0  0  0  0  0  0  0
  -29.8102  -12.2034  -31.8896 C   0  0  0  0  0  0  0  0  0  0  0  0
  1  2  2  0
  1  3  1  0
  3  4  1  0
  4  5  1  0
  5  6  2  0
M  END
>  <name>  (2) 
Car Nac Nd0 Car Car Car

>  <indices>  (2) 
[0, 1, 2]

>  <dummy>  (2) 
1

>  <tasks>  (2) 
probe_placing close_aromatic_ring close_aromatic_ring

>  <current_task>  (2) 
close_aromatic_ring

>  <prot_clashes>  (2) 
1

>  <NBS phar>  (2) 
0.22000000000000003

>  <NBS_non-phar>  (2) 
0.857022762298584

>  <NBS>  (2) 
1.077022762298584

>  <source_stage>  (2) 
scored

>  <source_iter>  (2) 
2

>  <source_parent_mol>  (2) 
0

>  <source_scenario>  (2) 
0 0

>  <source_rank_in_scored_call>  (2) 
2

>  <source_current_task>  (2) 
close_aromatic_ring

>  <rotatable_bond_torsions>  (2) 
1,0,2,3;0,2,3,4

>  <scenario>  (2) 
0 0

>  <reason_to_skip>  (2) 
incorrect arom ring closing

$$$$

     RDKit          3D

  6  5  0  0  0  0  0  0  0  0999 V2000
  -27.8650   -7.7310  -31.7500 C   0  0  0  0  0  0  0  0  0  0  0  0
  -27.6820   -7.0250  -32.9020 N   0  0  0  0  0  0  0  0  0  0  0  0
  -27.6230   -9.1120  -31.7550 N   0  0  0  0  0  0  0  0  0  0  0  0
  -28.7540   -9.8600  -31.5320 C   0  0  0  0  0  0  0  0  0  0  0  0
  -28.5566  -11.2637  -32.0069 C   0  0  0  0  0  0  0  0  0  0  0  0
  -27.6252  -12.0275  -32.5791 N   0  0  0  0  0  0  0  0  0  0  0  0
  1  2  2  0
  1  3  1  0
  3  4  1  0
  4  5  1  0
  5  6  1  0
M  END
>  <name>  (3) 
Car Nac Nd0 Car Car Nac

>  <indices>  (3) 
[0, 1, 2]

>  <dummy>  (3) 
1

>  <tasks>  (3) 
probe_placing close_aromatic_ring close_aromatic_ring

>  <current_task>  (3) 
close_aromatic_ring

>  <prot_clashes>  (3) 
1

>  <NBS phar>  (3) 
0.22000000000000003

>  <NBS_non-phar>  (3) 
0.857022762298584

>  <NBS>  (3) 
1.077022762298584

>  <source_stage>  (3) 
scored

>  <source_iter>  (3) 
2

>  <source_parent_mol>  (3) 
0

>  <source_scenario>  (3) 
0 0

>  <source_rank_in_scored_call>  (3) 
2

>  <source_current_task>  (3) 
close_aromatic_ring

>  <rotatable_bond_torsions>  (3) 
1,0,2,3;0,2,3,4

>  <scenario>  (3) 
0 0

>  <reason_to_skip>  (3) 
bad angles

$$$$

     RDKit          3D

  6  5  0  0  0  0  0  0  0  0999 V2000
  -27.8650   -7.7310  -31.7500 C   0  0  0  0  0  0  0  0  0  0  0  0
  -27.6820   -7.0250  -32.9020 N   0  0  0  0  0  0  0  0  0  0  0  0
  -27.6230   -9.1120  -31.7550 N   0  0  0  0  0  0  0  0  0  0  0  0
  -28.7540   -9.8600  -31.5320 C   0  0  0  0  0  0  0  0  0  0  0  0
  -28.5566  -11.2637  -32.0069 C   0  0  0  0  0  0  0  0  0  0  0  0
  -29.8296  -11.8115  -31.6312 N   0  0  0  0  0  0  0  0  0  0  0  0
  1  2  2  0
  1  3  1  0
  3  4  1  0
  4  5  1  0
  5  6  1  0
M  END
>  <name>  (4) 
Car Nac Nd0 Car Car Nac

>  <indices>  (4) 
[0, 1, 2]

>  <dummy>  (4) 
1

>  <tasks>  (4) 
probe_placing close_aromatic_ring close_aromatic_ring

>  <current_task>  (4) 
close_aromatic_ring

>  <prot_clashes>  (4) 
1

>  <NBS phar>  (4) 
0.22000000000000003

>  <NBS_non-phar>  (4) 
0.857022762298584

>  <NBS>  (4) 
1.077022762298584

>  <source_stage>  (4) 
scored

>  <source_iter>  (4) 
2

>  <source_parent_mol>  (4) 
0

>  <source_scenario>  (4) 
0 0

>  <source_rank_in_scored_call>  (4) 
2

>  <source_current_task>  (4) 
close_aromatic_ring

>  <rotatable_bond_torsions>  (4) 
1,0,2,3;0,2,3,4

>  <scenario>  (4) 
0 0

>  <reason_to_skip>  (4) 
bad angles

$$$$

     RDKit          3D

  6  5  0  0  0  0  0  0  0  0999 V2000
  -27.8650   -7.7310  -31.7500 C   0  0  0  0  0  0  0  0  0  0  0  0
  -27.6820   -7.0250  -32.9020 N   0  0  0  0  0  0  0  0  0  0  0  0
  -27.6230   -9.1120  -31.7550 N   0  0  0  0  0  0  0  0  0  0  0  0
  -28.7540   -9.8600  -31.5320 C   0  0  0  0  0  0  0  0  0  0  0  0
  -28.5566  -11.2637  -32.0069 C   0  0  0  0  0  0  0  0  0  0  0  0
  -27.5527  -12.0625  -32.5883 C   0  0  0  0  0  0  0  0  0  0  0  0
  1  2  2  0
  1  3  1  0
  3  4  1  0
  4  5  1  0
  5  6  1  0
M  END
>  <name>  (5) 
Car Nac Nd0 Car Car Car

>  <indices>  (5) 
[0, 1, 2]

>  <dummy>  (5) 
1

>  <tasks>  (5) 
probe_placing close_aromatic_ring close_aromatic_ring

>  <current_task>  (5) 
close_aromatic_ring

>  <prot_clashes>  (5) 
1

>  <NBS phar>  (5) 
0.22000000000000003

>  <NBS_non-phar>  (5) 
0.857022762298584

>  <NBS>  (5) 
1.077022762298584

>  <source_stage>  (5) 
scored

>  <source_iter>  (5) 
2

>  <source_parent_mol>  (5) 
0

>  <source_scenario>  (5) 
0 0

>  <source_rank_in_scored_call>  (5) 
2

>  <source_current_task>  (5) 
close_aromatic_ring

>  <rotatable_bond_torsions>  (5) 
1,0,2,3;0,2,3,4

>  <scenario>  (5) 
0 0

>  <reason_to_skip>  (5) 
bad angles

$$$$

     RDKit          3D

  6  5  0  0  0  0  0  0  0  0999 V2000
  -27.8650   -7.7310  -31.7500 C   0  0  0  0  0  0  0  0  0  0  0  0
  -27.6820   -7.0250  -32.9020 N   0  0  0  0  0  0  0  0  0  0  0  0
  -27.6230   -9.1120  -31.7550 N   0  0  0  0  0  0  0  0  0  0  0  0
  -28.7540   -9.8600  -31.5320 C   0  0  0  0  0  0  0  0  0  0  0  0
  -28.5566  -11.2637  -32.0069 C   0  0  0  0  0  0  0  0  0  0  0  0
  -27.4461  -11.7851  -32.5867 C   0  0  0  0  0  0  0  0  0  0  0  0
  1  2  2  0
  1  3  1  0
  3  4  1  0
  4  5  1  0
  5  6  2  0
M  END
>  <name>  (6) 
Car Nac Nd0 Car Car Car

>  <indices>  (6) 
[0, 1, 2]

>  <dummy>  (6) 
1

>  <tasks>  (6) 
probe_placing close_aromatic_ring close_aromatic_ring

>  <current_task>  (6) 
close_aromatic_ring

>  <prot_clashes>  (6) 
1

>  <NBS phar>  (6) 
0.22000000000000003

>  <NBS_non-phar>  (6) 
0.857022762298584

>  <NBS>  (6) 
1.077022762298584

>  <source_stage>  (6) 
scored

>  <source_iter>  (6) 
2

>  <source_parent_mol>  (6) 
0

>  <source_scenario>  (6) 
0 0

>  <source_rank_in_scored_call>  (6) 
2

>  <source_current_task>  (6) 
close_aromatic_ring

>  <rotatable_bond_torsions>  (6) 
1,0,2,3;0,2,3,4

>  <scenario>  (6) 
0 0

>  <reason_to_skip>  (6) 
incorrect arom ring closing

$$$$

     RDKit          3D

  6  5  0  0  0  0  0  0  0  0999 V2000
  -27.8650   -7.7310  -31.7500 C   0  0  0  0  0  0  0  0  0  0  0  0
  -27.6820   -7.0250  -32.9020 N   0  0  0  0  0  0  0  0  0  0  0  0
  -27.6230   -9.1120  -31.7550 N   0  0  0  0  0  0  0  0  0  0  0  0
  -28.7540   -9.8600  -31.5320 C   0  0  0  0  0  0  0  0  0  0  0  0
  -28.5566  -11.2637  -32.0069 C   0  0  0  0  0  0  0  0  0  0  0  0
  -29.7192  -12.0973  -31.8107 C   0  0  0  0  0  0  0  0  0  0  0  0
  1  2  2  0
  1  3  1  0
  3  4  1  0
  4  5  1  0
  5  6  1  0
M  END
>  <name>  (7) 
Car Nac Nd0 Car Car Car

>  <indices>  (7) 
[0, 1, 2]

>  <dummy>  (7) 
1

>  <tasks>  (7) 
probe_placing close_aromatic_ring close_aromatic_ring

>  <current_task>  (7) 
close_aromatic_ring

>  <prot_clashes>  (7) 
1

>  <NBS phar>  (7) 
0.22000000000000003

>  <NBS_non-phar>  (7) 
0.857022762298584

>  <NBS>  (7) 
1.077022762298584

>  <source_stage>  (7) 
scored

>  <source_iter>  (7) 
2

>  <source_parent_mol>  (7) 
0

>  <source_scenario>  (7) 
0 0

>  <source_rank_in_scored_call>  (7) 
2

>  <source_current_task>  (7) 
close_aromatic_ring

>  <rotatable_bond_torsions>  (7) 
1,0,2,3;0,2,3,4

>  <scenario>  (7) 
0 0

>  <reason_to_skip>  (7) 
incorrect arom ring closing

$$$$

     RDKit          3D

  6  5  0  0  0  0  0  0  0  0999 V2000
  -27.8650   -7.7310  -31.7500 C   0  0  0  0  0  0  0  0  0  0  0  0
  -27.6820   -7.0250  -32.9020 N   0  0  0  0  0  0  0  0  0  0  0  0
  -27.6230   -9.1120  -31.7550 N   0  0  0  0  0  0  0  0  0  0  0  0
  -28.7540   -9.8600  -31.5320 C   0  0  0  0  0  0  0  0  0  0  0  0
  -28.5566  -11.2637  -32.0069 C   0  0  0  0  0  0  0  0  0  0  0  0
  -27.4988  -11.8401  -32.5787 C   0  0  0  0  0  0  0  0  0  0  0  0
  1  2  2  0
  1  3  1  0
  3  4  1  0
  4  5  1  0
  5  6  1  0
M  END
>  <name>  (8) 
Car Nac Nd0 Car Car Car

>  <indices>  (8) 
[0, 1, 2]

>  <dummy>  (8) 
1

>  <tasks>  (8) 
probe_placing close_aromatic_ring close_aromatic_ring

>  <current_task>  (8) 
close_aromatic_ring

>  <prot_clashes>  (8) 
1

>  <NBS phar>  (8) 
0.22000000000000003

>  <NBS_non-phar>  (8) 
0.857022762298584

>  <NBS>  (8) 
1.077022762298584

>  <source_stage>  (8) 
scored

>  <source_iter>  (8) 
2

>  <source_parent_mol>  (8) 
0

>  <source_scenario>  (8) 
0 0

>  <source_rank_in_scored_call>  (8) 
2

>  <source_current_task>  (8) 
close_aromatic_ring

>  <rotatable_bond_torsions>  (8) 
1,0,2,3;0,2,3,4

>  <scenario>  (8) 
0 0

>  <reason_to_skip>  (8) 
incorrect arom ring closing

$$$$

     RDKit          3D

  6  5  0  0  0  0  0  0  0  0999 V2000
  -27.8650   -7.7310  -31.7500 C   0  0  0  0  0  0  0  0  0  0  0  0
  -27.6820   -7.0250  -32.9020 N   0  0  0  0  0  0  0  0  0  0  0  0
  -27.6230   -9.1120  -31.7550 N   0  0  0  0  0  0  0  0  0  0  0  0
  -28.7540   -9.8600  -31.5320 C   0  0  0  0  0  0  0  0  0  0  0  0
  -28.5566  -11.2637  -32.0069 C   0  0  0  0  0  0  0  0  0  0  0  0
  -27.4719  -11.6785  -32.6135 N   0  0  0  0  0  0  0  0  0  0  0  0
  1  2  2  0
  1  3  1  0
  3  4  1  0
  4  5  1  0
  5  6  2  0
M  END
>  <name>  (9) 
Car Nac Nd0 Car Car Nac

>  <indices>  (9) 
[0, 1, 2]

>  <dummy>  (9) 
1

>  <tasks>  (9) 
probe_placing close_aromatic_ring close_aromatic_ring

>  <current_task>  (9) 
close_aromatic_ring

>  <prot_clashes>  (9) 
1

>  <NBS phar>  (9) 
0.22000000000000003

>  <NBS_non-phar>  (9) 
0.857022762298584

>  <NBS>  (9) 
1.077022762298584

>  <source_stage>  (9) 
scored

>  <source_iter>  (9) 
2

>  <source_parent_mol>  (9) 
0

>  <source_scenario>  (9) 
0 0

>  <source_rank_in_scored_call>  (9) 
2

>  <source_current_task>  (9) 
close_aromatic_ring

>  <rotatable_bond_torsions>  (9) 
1,0,2,3;0,2,3,4

>  <scenario>  (9) 
0 0

>  <reason_to_skip>  (9) 
incorrect arom ring closing

$$$$

     RDKit          3D

  6  5  0  0  0  0  0  0  0  0999 V2000
  -27.8650   -7.7310  -31.7500 C   0  0  0  0  0  0  0  0  0  0  0  0
  -27.6820   -7.0250  -32.9020 N   0  0  0  0  0  0  0  0  0  0  0  0
  -27.6230   -9.1120  -31.7550 N   0  0  0  0  0  0  0  0  0  0  0  0
  -28.7540   -9.8600  -31.5320 C   0  0  0  0  0  0  0  0  0  0  0  0
  -28.5566  -11.2637  -32.0069 C   0  0  0  0  0  0  0  0  0  0  0  0
  -28.8342  -12.3792  -31.0997 C   0  0  0  0  0  0  0  0  0  0  0  0
  1  2  2  0
  1  3  1  0
  3  4  1  0
  4  5  1  0
  5  6  2  0
M  END
>  <name>  (10) 
Car Nac Nd0 Car Car Car

>  <indices>  (10) 
[0, 1, 2]

>  <dummy>  (10) 
1

>  <tasks>  (10) 
probe_placing close_aromatic_ring close_aromatic_ring

>  <current_task>  (10) 
close_aromatic_ring

>  <prot_clashes>  (10) 
1

>  <NBS phar>  (10) 
0.22000000000000003

>  <NBS_non-phar>  (10) 
0.857022762298584

>  <NBS>  (10) 
1.077022762298584

>  <source_stage>  (10) 
scored

>  <source_iter>  (10) 
2

>  <source_parent_mol>  (10) 
0

>  <source_scenario>  (10) 
0 0

>  <source_rank_in_scored_call>  (10) 
2

>  <source_current_task>  (10) 
close_aromatic_ring

>  <rotatable_bond_torsions>  (10) 
1,0,2,3;0,2,3,4

>  <scenario>  (10) 
0 0

>  <reason_to_skip>  (10) 
incorrect arom ring closing

$$$$

     RDKit          3D

  6  5  0  0  0  0  0  0  0  0999 V2000
  -27.8650   -7.7310  -31.7500 C   0  0  0  0  0  0  0  0  0  0  0  0
  -27.6820   -7.0250  -32.9020 N   0  0  0  0  0  0  0  0  0  0  0  0
  -27.6230   -9.1120  -31.7550 N   0  0  0  0  0  0  0  0  0  0  0  0
  -28.7540   -9.8600  -31.5320 C   0  0  0  0  0  0  0  0  0  0  0  0
  -28.5566  -11.2637  -32.0069 C   0  0  0  0  0  0  0  0  0  0  0  0
    0.0000    0.0000    0.0000 O   0  0  0  0  0  0  0  0  0  0  0  0
  1  2  2  0
  1  3  1  0
  3  4  1  0
  4  5  1  0
  5  6  1  0
M  END
>  <name>  (11) 
Car Nac Nd0 Car Car O_a

>  <indices>  (11) 
[0, 1, 2]

>  <dummy>  (11) 
1

>  <tasks>  (11) 
probe_placing close_aromatic_ring close_aromatic_ring

>  <current_task>  (11) 
close_aromatic_ring

>  <prot_clashes>  (11) 
1

>  <NBS phar>  (11) 
0.22000000000000003

>  <NBS_non-phar>  (11) 
0.857022762298584

>  <NBS>  (11) 
1.077022762298584

>  <source_stage>  (11) 
scored

>  <source_iter>  (11) 
2

>  <source_parent_mol>  (11) 
0

>  <source_scenario>  (11) 
0 0

>  <source_rank_in_scored_call>  (11) 
2

>  <source_current_task>  (11) 
close_aromatic_ring

>  <rotatable_bond_torsions>  (11) 
1,0,2,3;0,2,3,4

>  <scenario>  (11) 
0 0

>  <reason_to_skip>  (11) 
some_atom_counter_exceeded

$$$$

     RDKit          3D

  6  5  0  0  0  0  0  0  0  0999 V2000
  -27.8650   -7.7310  -31.7500 C   0  0  0  0  0  0  0  0  0  0  0  0
  -27.6820   -7.0250  -32.9020 N   0  0  0  0  0  0  0  0  0  0  0  0
  -27.6230   -9.1120  -31.7550 N   0  0  0  0  0  0  0  0  0  0  0  0
  -28.7540   -9.8600  -31.5320 C   0  0  0  0  0  0  0  0  0  0  0  0
  -28.5566  -11.2637  -32.0069 C   0  0  0  0  0  0  0  0  0  0  0  0
  -29.8041  -11.8769  -31.7145 N   0  0  0  0  0  0  0  0  0  0  0  0
  1  2  2  0
  1  3  1  0
  3  4  1  0
  4  5  1  0
  5  6  2  0
M  END
>  <name>  (12) 
Car Nac Nd0 Car Car Nac

>  <indices>  (12) 
[0, 1, 2]

>  <dummy>  (12) 
1

>  <tasks>  (12) 
probe_placing close_aromatic_ring close_aromatic_ring

>  <current_task>  (12) 
close_aromatic_ring

>  <prot_clashes>  (12) 
1

>  <NBS phar>  (12) 
0.22000000000000003

>  <NBS_non-phar>  (12) 
0.857022762298584

>  <NBS>  (12) 
1.077022762298584

>  <source_stage>  (12) 
scored

>  <source_iter>  (12) 
2

>  <source_parent_mol>  (12) 
0

>  <source_scenario>  (12) 
0 0

>  <source_rank_in_scored_call>  (12) 
2

>  <source_current_task>  (12) 
close_aromatic_ring

>  <rotatable_bond_torsions>  (12) 
1,0,2,3;0,2,3,4

>  <scenario>  (12) 
0 0

>  <reason_to_skip>  (12) 
incorrect arom ring closing

$$$$

     RDKit          3D

  6  5  0  0  0  0  0  0  0  0999 V2000
  -27.8650   -7.7310  -31.7500 C   0  0  0  0  0  0  0  0  0  0  0  0
  -27.6820   -7.0250  -32.9020 N   0  0  0  0  0  0  0  0  0  0  0  0
  -27.6230   -9.1120  -31.7550 N   0  0  0  0  0  0  0  0  0  0  0  0
  -28.7540   -9.8600  -31.5320 C   0  0  0  0  0  0  0  0  0  0  0  0
  -28.5566  -11.2637  -32.0069 C   0  0  0  0  0  0  0  0  0  0  0  0
  -27.5494  -11.8766  -32.5738 N   0  0  0  0  0  0  0  0  0  0  0  0
  1  2  2  0
  1  3  1  0
  3  4  1  0
  4  5  1  0
  5  6  1  0
M  END
>  <name>  (13) 
Car Nac Nd0 Car Car Nac

>  <indices>  (13) 
[0, 1, 2]

>  <dummy>  (13) 
1

>  <tasks>  (13) 
probe_placing close_aromatic_ring close_aromatic_ring

>  <current_task>  (13) 
close_aromatic_ring

>  <prot_clashes>  (13) 
1

>  <NBS phar>  (13) 
0.22000000000000003

>  <NBS_non-phar>  (13) 
0.857022762298584

>  <NBS>  (13) 
1.077022762298584

>  <source_stage>  (13) 
scored

>  <source_iter>  (13) 
2

>  <source_parent_mol>  (13) 
0

>  <source_scenario>  (13) 
0 0

>  <source_rank_in_scored_call>  (13) 
2

>  <source_current_task>  (13) 
close_aromatic_ring

>  <rotatable_bond_torsions>  (13) 
1,0,2,3;0,2,3,4

>  <scenario>  (13) 
0 0

>  <reason_to_skip>  (13) 
incorrect arom ring closing

$$$$

     RDKit          3D

  6  5  0  0  0  0  0  0  0  0999 V2000
  -27.8650   -7.7310  -31.7500 C   0  0  0  0  0  0  0  0  0  0  0  0
  -27.6820   -7.0250  -32.9020 N   0  0  0  0  0  0  0  0  0  0  0  0
  -27.6230   -9.1120  -31.7550 N   0  0  0  0  0  0  0  0  0  0  0  0
  -28.7540   -9.8600  -31.5320 C   0  0  0  0  0  0  0  0  0  0  0  0
  -28.5566  -11.2637  -32.0069 C   0  0  0  0  0  0  0  0  0  0  0  0
  -29.4165  -12.3283  -31.9789 N   0  0  0  0  0  0  0  0  0  0  0  0
  1  2  2  0
  1  3  1  0
  3  4  1  0
  4  5  1  0
  5  6  1  0
M  END
>  <name>  (14) 
Car Nac Nd0 Car Car Nd0

>  <indices>  (14) 
[0, 1, 2]

>  <dummy>  (14) 
1

>  <tasks>  (14) 
probe_placing close_aromatic_ring close_aromatic_ring

>  <current_task>  (14) 
close_aromatic_ring

>  <prot_clashes>  (14) 
1

>  <NBS phar>  (14) 
0.22000000000000003

>  <NBS_non-phar>  (14) 
0.857022762298584

>  <NBS>  (14) 
1.077022762298584

>  <source_stage>  (14) 
scored

>  <source_iter>  (14) 
2

>  <source_parent_mol>  (14) 
0

>  <source_scenario>  (14) 
0 0

>  <source_rank_in_scored_call>  (14) 
2

>  <source_current_task>  (14) 
close_aromatic_ring

>  <rotatable_bond_torsions>  (14) 
1,0,2,3;0,2,3,4

>  <scenario>  (14) 
0 0

>  <reason_to_skip>  (14) 
incorrect arom ring closing

$$$$

     RDKit          3D

  6  5  0  0  0  0  0  0  0  0999 V2000
  -27.8650   -7.7310  -31.7500 C   0  0  0  0  0  0  0  0  0  0  0  0
  -27.6820   -7.0250  -32.9020 N   0  0  0  0  0  0  0  0  0  0  0  0
  -27.6230   -9.1120  -31.7550 N   0  0  0  0  0  0  0  0  0  0  0  0
  -28.7540   -9.8600  -31.5320 C   0  0  0  0  0  0  0  0  0  0  0  0
  -28.5566  -11.2637  -32.0069 C   0  0  0  0  0  0  0  0  0  0  0  0
  -29.6594  -12.1236  -31.8130 N   0  0  0  0  0  0  0  0  0  0  0  0
  1  2  2  0
  1  3  1  0
  3  4  1  0
  4  5  1  0
  5  6  1  0
M  END
>  <name>  (15) 
Car Nac Nd0 Car Car Nac

>  <indices>  (15) 
[0, 1, 2]

>  <dummy>  (15) 
1

>  <tasks>  (15) 
probe_placing close_aromatic_ring close_aromatic_ring

>  <current_task>  (15) 
close_aromatic_ring

>  <prot_clashes>  (15) 
1

>  <NBS phar>  (15) 
0.22000000000000003

>  <NBS_non-phar>  (15) 
0.857022762298584

>  <NBS>  (15) 
1.077022762298584

>  <source_stage>  (15) 
scored

>  <source_iter>  (15) 
2

>  <source_parent_mol>  (15) 
0

>  <source_scenario>  (15) 
0 0

>  <source_rank_in_scored_call>  (15) 
2

>  <source_current_task>  (15) 
close_aromatic_ring

>  <rotatable_bond_torsions>  (15) 
1,0,2,3;0,2,3,4

>  <scenario>  (15) 
0 0

>  <reason_to_skip>  (15) 
incorrect arom ring closing

$$$$

     RDKit          3D

  6  5  0  0  0  0  0  0  0  0999 V2000
  -27.8650   -7.7310  -31.7500 C   0  0  0  0  0  0  0  0  0  0  0  0
  -27.6820   -7.0250  -32.9020 N   0  0  0  0  0  0  0  0  0  0  0  0
  -27.6230   -9.1120  -31.7550 N   0  0  0  0  0  0  0  0  0  0  0  0
  -28.7540   -9.8600  -31.5320 C   0  0  0  0  0  0  0  0  0  0  0  0
  -28.5566  -11.2637  -32.0069 C   0  0  0  0  0  0  0  0  0  0  0  0
    0.0000    0.0000    0.0000 O   0  0  0  0  0  0  0  0  0  0  0  0
  1  2  2  0
  1  3  1  0
  3  4  1  0
  4  5  1  0
  5  6  1  0
M  END
>  <name>  (16) 
Car Nac Nd0 Car Car O_a

>  <indices>  (16) 
[0, 1, 2]

>  <dummy>  (16) 
1

>  <tasks>  (16) 
probe_placing close_aromatic_ring close_aromatic_ring

>  <current_task>  (16) 
close_aromatic_ring

>  <prot_clashes>  (16) 
1

>  <NBS phar>  (16) 
0.22000000000000003

>  <NBS_non-phar>  (16) 
0.857022762298584

>  <NBS>  (16) 
1.077022762298584

>  <source_stage>  (16) 
scored

>  <source_iter>  (16) 
2

>  <source_parent_mol>  (16) 
0

>  <source_scenario>  (16) 
0 0

>  <source_rank_in_scored_call>  (16) 
2

>  <source_current_task>  (16) 
close_aromatic_ring

>  <rotatable_bond_torsions>  (16) 
1,0,2,3;0,2,3,4

>  <scenario>  (16) 
0 0

>  <reason_to_skip>  (16) 
some_atom_counter_exceeded

$$$$

     RDKit          3D

  6  5  0  0  0  0  0  0  0  0999 V2000
  -27.8650   -7.7310  -31.7500 C   0  0  0  0  0  0  0  0  0  0  0  0
  -27.6820   -7.0250  -32.9020 N   0  0  0  0  0  0  0  0  0  0  0  0
  -27.6230   -9.1120  -31.7550 N   0  0  0  0  0  0  0  0  0  0  0  0
  -28.7540   -9.8600  -31.5320 C   0  0  0  0  0  0  0  0  0  0  0  0
  -28.5566  -11.2637  -32.0069 C   0  0  0  0  0  0  0  0  0  0  0  0
  -28.2732  -12.1237  -30.9222 C   0  0  0  0  0  0  0  0  0  0  0  0
  1  2  2  0
  1  3  1  0
  3  4  1  0
  4  5  1  0
  5  6  1  0
M  END
>  <name>  (17) 
Car Nac Nd0 Car Car Car

>  <indices>  (17) 
[0, 1, 2]

>  <dummy>  (17) 
1

>  <tasks>  (17) 
probe_placing close_aromatic_ring close_aromatic_ring

>  <current_task>  (17) 
close_aromatic_ring

>  <prot_clashes>  (17) 
1

>  <NBS phar>  (17) 
0.22000000000000003

>  <NBS_non-phar>  (17) 
0.857022762298584

>  <NBS>  (17) 
1.077022762298584

>  <source_stage>  (17) 
scored

>  <source_iter>  (17) 
2

>  <source_parent_mol>  (17) 
0

>  <source_scenario>  (17) 
0 0

>  <source_rank_in_scored_call>  (17) 
2

>  <source_current_task>  (17) 
close_aromatic_ring

>  <rotatable_bond_torsions>  (17) 
1,0,2,3;0,2,3,4

>  <scenario>  (17) 
0 0

>  <reason_to_skip>  (17) 
incorrect arom ring closing

$$$$

     RDKit          3D

  6  5  0  0  0  0  0  0  0  0999 V2000
  -27.8650   -7.7310  -31.7500 C   0  0  0  0  0  0  0  0  0  0  0  0
  -27.6820   -7.0250  -32.9020 N   0  0  0  0  0  0  0  0  0  0  0  0
  -27.6230   -9.1120  -31.7550 N   0  0  0  0  0  0  0  0  0  0  0  0
  -28.7540   -9.8600  -31.5320 C   0  0  0  0  0  0  0  0  0  0  0  0
  -28.5566  -11.2637  -32.0069 C   0  0  0  0  0  0  0  0  0  0  0  0
  -27.4492  -11.6962  -32.5319 N   0  0  0  0  0  0  0  0  0  0  0  0
  1  2  2  0
  1  3  1  0
  3  4  1  0
  4  5  1  0
  5  6  1  0
M  END
>  <name>  (18) 
Car Nac Nd0 Car Car Nd0

>  <indices>  (18) 
[0, 1, 2]

>  <dummy>  (18) 
1

>  <tasks>  (18) 
probe_placing close_aromatic_ring close_aromatic_ring

>  <current_task>  (18) 
close_aromatic_ring

>  <prot_clashes>  (18) 
1

>  <NBS phar>  (18) 
0.22000000000000003

>  <NBS_non-phar>  (18) 
0.857022762298584

>  <NBS>  (18) 
1.077022762298584

>  <source_stage>  (18) 
scored

>  <source_iter>  (18) 
2

>  <source_parent_mol>  (18) 
0

>  <source_scenario>  (18) 
0 0

>  <source_rank_in_scored_call>  (18) 
2

>  <source_current_task>  (18) 
close_aromatic_ring

>  <rotatable_bond_torsions>  (18) 
1,0,2,3;0,2,3,4

>  <scenario>  (18) 
0 0

>  <reason_to_skip>  (18) 
incorrect arom ring closing

$$$$

     RDKit          3D

  6  5  0  0  0  0  0  0  0  0999 V2000
  -27.8650   -7.7310  -31.7500 C   0  0  0  0  0  0  0  0  0  0  0  0
  -27.6820   -7.0250  -32.9020 N   0  0  0  0  0  0  0  0  0  0  0  0
  -27.6230   -9.1120  -31.7550 N   0  0  0  0  0  0  0  0  0  0  0  0
  -28.7540   -9.8600  -31.5320 C   0  0  0  0  0  0  0  0  0  0  0  0
  -28.5566  -11.2637  -32.0069 C   0  0  0  0  0  0  0  0  0  0  0  0
  -29.6275  -12.0586  -31.8013 N   0  0  0  0  0  0  0  0  0  0  0  0
  1  2  2  0
  1  3  1  0
  3  4  1  0
  4  5  1  0
  5  6  1  0
M  END
>  <name>  (19) 
Car Nac Nd0 Car Car Nd0

>  <indices>  (19) 
[0, 1, 2]

>  <dummy>  (19) 
1

>  <tasks>  (19) 
probe_placing close_aromatic_ring close_aromatic_ring

>  <current_task>  (19) 
close_aromatic_ring

>  <prot_clashes>  (19) 
1

>  <NBS phar>  (19) 
0.22000000000000003

>  <NBS_non-phar>  (19) 
0.857022762298584

>  <NBS>  (19) 
1.077022762298584

>  <source_stage>  (19) 
scored

>  <source_iter>  (19) 
2

>  <source_parent_mol>  (19) 
0

>  <source_scenario>  (19) 
0 0

>  <source_rank_in_scored_call>  (19) 
2

>  <source_current_task>  (19) 
close_aromatic_ring

>  <rotatable_bond_torsions>  (19) 
1,0,2,3;0,2,3,4

>  <scenario>  (19) 
0 0

>  <reason_to_skip>  (19) 
incorrect arom ring closing

$$$$

     RDKit          3D

  6  5  0  0  0  0  0  0  0  0999 V2000
  -27.8650   -7.7310  -31.7500 C   0  0  0  0  0  0  0  0  0  0  0  0
  -27.6820   -7.0250  -32.9020 N   0  0  0  0  0  0  0  0  0  0  0  0
  -27.6230   -9.1120  -31.7550 N   0  0  0  0  0  0  0  0  0  0  0  0
  -28.7540   -9.8600  -31.5320 C   0  0  0  0  0  0  0  0  0  0  0  0
  -28.5566  -11.2637  -32.0069 C   0  0  0  0  0  0  0  0  0  0  0  0
    0.0000    0.0000    0.0000 S   0  0  0  0  0  0  0  0  0  0  0  0
  1  2  2  0
  1  3  1  0
  3  4  1  0
  4  5  1  0
  5  6  1  0
M  END
>  <name>  (20) 
Car Nac Nd0 Car Car Sul

>  <indices>  (20) 
[0, 1, 2]

>  <dummy>  (20) 
1

>  <tasks>  (20) 
probe_placing close_aromatic_ring close_aromatic_ring

>  <current_task>  (20) 
close_aromatic_ring

>  <prot_clashes>  (20) 
1

>  <NBS phar>  (20) 
0.22000000000000003

>  <NBS_non-phar>  (20) 
0.857022762298584

>  <NBS>  (20) 
1.077022762298584

>  <source_stage>  (20) 
scored

>  <source_iter>  (20) 
2

>  <source_parent_mol>  (20) 
0

>  <source_scenario>  (20) 
0 0

>  <source_rank_in_scored_call>  (20) 
2

>  <source_current_task>  (20) 
close_aromatic_ring

>  <rotatable_bond_torsions>  (20) 
1,0,2,3;0,2,3,4

>  <scenario>  (20) 
0 0

>  <reason_to_skip>  (20) 
some_atom_counter_exceeded

$$$$

     RDKit          3D

  6  5  0  0  0  0  0  0  0  0999 V2000
  -27.8650   -7.7310  -31.7500 C   0  0  0  0  0  0  0  0  0  0  0  0
  -27.6820   -7.0250  -32.9020 N   0  0  0  0  0  0  0  0  0  0  0  0
  -27.6230   -9.1120  -31.7550 N   0  0  0  0  0  0  0  0  0  0  0  0
  -28.7540   -9.8600  -31.5320 C   0  0  0  0  0  0  0  0  0  0  0  0
  -28.5566  -11.2637  -32.0069 C   0  0  0  0  0  0  0  0  0  0  0  0
  -28.4710  -12.3627  -31.0700 C   0  0  0  0  0  0  0  0  0  0  0  0
  1  2  2  0
  1  3  1  0
  3  4  1  0
  4  5  1  0
  5  6  1  0
M  END
>  <name>  (21) 
Car Nac Nd0 Car Car Car

>  <indices>  (21) 
[0, 1, 2]

>  <dummy>  (21) 
1

>  <tasks>  (21) 
probe_placing close_aromatic_ring close_aromatic_ring

>  <current_task>  (21) 
close_aromatic_ring

>  <prot_clashes>  (21) 
1

>  <NBS phar>  (21) 
0.22000000000000003

>  <NBS_non-phar>  (21) 
0.857022762298584

>  <NBS>  (21) 
1.077022762298584

>  <source_stage>  (21) 
scored

>  <source_iter>  (21) 
2

>  <source_parent_mol>  (21) 
0

>  <source_scenario>  (21) 
0 0

>  <source_rank_in_scored_call>  (21) 
2

>  <source_current_task>  (21) 
close_aromatic_ring

>  <rotatable_bond_torsions>  (21) 
1,0,2,3;0,2,3,4

>  <scenario>  (21) 
0 0

>  <reason_to_skip>  (21) 
incorrect arom ring closing

$$$$

     RDKit          3D

  6  5  0  0  0  0  0  0  0  0999 V2000
  -27.8650   -7.7310  -31.7500 C   0  0  0  0  0  0  0  0  0  0  0  0
  -27.6820   -7.0250  -32.9020 N   0  0  0  0  0  0  0  0  0  0  0  0
  -27.6230   -9.1120  -31.7550 N   0  0  0  0  0  0  0  0  0  0  0  0
  -28.7540   -9.8600  -31.5320 C   0  0  0  0  0  0  0  0  0  0  0  0
  -28.5566  -11.2637  -32.0069 C   0  0  0  0  0  0  0  0  0  0  0  0
  -27.6553  -11.9973  -32.5137 N   0  0  0  0  0  0  0  0  0  0  0  0
  1  2  2  0
  1  3  1  0
  3  4  1  0
  4  5  1  0
  5  6  1  0
M  END
>  <name>  (22) 
Car Nac Nd0 Car Car Nd0

>  <indices>  (22) 
[0, 1, 2]

>  <dummy>  (22) 
1

>  <tasks>  (22) 
probe_placing close_aromatic_ring close_aromatic_ring

>  <current_task>  (22) 
close_aromatic_ring

>  <prot_clashes>  (22) 
1

>  <NBS phar>  (22) 
0.22000000000000003

>  <NBS_non-phar>  (22) 
0.857022762298584

>  <NBS>  (22) 
1.077022762298584

>  <source_stage>  (22) 
scored

>  <source_iter>  (22) 
2

>  <source_parent_mol>  (22) 
0

>  <source_scenario>  (22) 
0 0

>  <source_rank_in_scored_call>  (22) 
2

>  <source_current_task>  (22) 
close_aromatic_ring

>  <rotatable_bond_torsions>  (22) 
1,0,2,3;0,2,3,4

>  <scenario>  (22) 
0 0

>  <reason_to_skip>  (22) 
bad angles

$$$$

     RDKit          3D

  6  5  0  0  0  0  0  0  0  0999 V2000
  -27.8650   -7.7310  -31.7500 C   0  0  0  0  0  0  0  0  0  0  0  0
  -27.6820   -7.0250  -32.9020 N   0  0  0  0  0  0  0  0  0  0  0  0
  -27.6230   -9.1120  -31.7550 N   0  0  0  0  0  0  0  0  0  0  0  0
  -28.7540   -9.8600  -31.5320 C   0  0  0  0  0  0  0  0  0  0  0  0
  -28.5566  -11.2637  -32.0069 C   0  0  0  0  0  0  0  0  0  0  0  0
    0.0000    0.0000    0.0000 O   0  0  0  0  0  0  0  0  0  0  0  0
  1  2  2  0
  1  3  1  0
  3  4  1  0
  4  5  1  0
  5  6  1  0
M  END
>  <name>  (23) 
Car Nac Nd0 Car Car O_a

>  <indices>  (23) 
[0, 1, 2]

>  <dummy>  (23) 
1

>  <tasks>  (23) 
probe_placing close_aromatic_ring close_aromatic_ring

>  <current_task>  (23) 
close_aromatic_ring

>  <prot_clashes>  (23) 
1

>  <NBS phar>  (23) 
0.22000000000000003

>  <NBS_non-phar>  (23) 
0.857022762298584

>  <NBS>  (23) 
1.077022762298584

>  <source_stage>  (23) 
scored

>  <source_iter>  (23) 
2

>  <source_parent_mol>  (23) 
0

>  <source_scenario>  (23) 
0 0

>  <source_rank_in_scored_call>  (23) 
2

>  <source_current_task>  (23) 
close_aromatic_ring

>  <rotatable_bond_torsions>  (23) 
1,0,2,3;0,2,3,4

>  <scenario>  (23) 
0 0

>  <reason_to_skip>  (23) 
some_atom_counter_exceeded

$$$$

     RDKit          3D

  6  5  0  0  0  0  0  0  0  0999 V2000
  -27.8650   -7.7310  -31.7500 C   0  0  0  0  0  0  0  0  0  0  0  0
  -27.6820   -7.0250  -32.9020 N   0  0  0  0  0  0  0  0  0  0  0  0
  -27.6230   -9.1120  -31.7550 N   0  0  0  0  0  0  0  0  0  0  0  0
  -28.7540   -9.8600  -31.5320 C   0  0  0  0  0  0  0  0  0  0  0  0
  -28.5566  -11.2637  -32.0069 C   0  0  0  0  0  0  0  0  0  0  0  0
    0.0000    0.0000    0.0000 S   0  0  0  0  0  0  0  0  0  0  0  0
  1  2  2  0
  1  3  1  0
  3  4  1  0
  4  5  1  0
  5  6  1  0
M  END
>  <name>  (24) 
Car Nac Nd0 Car Car Sul

>  <indices>  (24) 
[0, 1, 2]

>  <dummy>  (24) 
1

>  <tasks>  (24) 
probe_placing close_aromatic_ring close_aromatic_ring

>  <current_task>  (24) 
close_aromatic_ring

>  <prot_clashes>  (24) 
1

>  <NBS phar>  (24) 
0.22000000000000003

>  <NBS_non-phar>  (24) 
0.857022762298584

>  <NBS>  (24) 
1.077022762298584

>  <source_stage>  (24) 
scored

>  <source_iter>  (24) 
2

>  <source_parent_mol>  (24) 
0

>  <source_scenario>  (24) 
0 0

>  <source_rank_in_scored_call>  (24) 
2

>  <source_current_task>  (24) 
close_aromatic_ring

>  <rotatable_bond_torsions>  (24) 
1,0,2,3;0,2,3,4

>  <scenario>  (24) 
0 0

>  <reason_to_skip>  (24) 
some_atom_counter_exceeded

$$$$

     RDKit          3D

  6  5  0  0  0  0  0  0  0  0999 V2000
  -27.8650   -7.7310  -31.7500 C   0  0  0  0  0  0  0  0  0  0  0  0
  -27.6820   -7.0250  -32.9020 N   0  0  0  0  0  0  0  0  0  0  0  0
  -27.6230   -9.1120  -31.7550 N   0  0  0  0  0  0  0  0  0  0  0  0
  -28.7540   -9.8600  -31.5320 C   0  0  0  0  0  0  0  0  0  0  0  0
  -28.5566  -11.2637  -32.0069 C   0  0  0  0  0  0  0  0  0  0  0  0
    0.0000    0.0000    0.0000 S   0  0  0  0  0  0  0  0  0  0  0  0
  1  2  2  0
  1  3  1  0
  3  4  1  0
  4  5  1  0
  5  6  1  0
M  END
>  <name>  (25) 
Car Nac Nd0 Car Car Sul

>  <indices>  (25) 
[0, 1, 2]

>  <dummy>  (25) 
1

>  <tasks>  (25) 
probe_placing close_aromatic_ring close_aromatic_ring

>  <current_task>  (25) 
close_aromatic_ring

>  <prot_clashes>  (25) 
1

>  <NBS phar>  (25) 
0.22000000000000003

>  <NBS_non-phar>  (25) 
0.857022762298584

>  <NBS>  (25) 
1.077022762298584

>  <source_stage>  (25) 
scored

>  <source_iter>  (25) 
2

>  <source_parent_mol>  (25) 
0

>  <source_scenario>  (25) 
0 0

>  <source_rank_in_scored_call>  (25) 
2

>  <source_current_task>  (25) 
close_aromatic_ring

>  <rotatable_bond_torsions>  (25) 
1,0,2,3;0,2,3,4

>  <scenario>  (25) 
0 0

>  <reason_to_skip>  (25) 
some_atom_counter_exceeded

$$$$

     RDKit          3D

  6  5  0  0  0  0  0  0  0  0999 V2000
  -27.8650   -7.7310  -31.7500 C   0  0  0  0  0  0  0  0  0  0  0  0
  -27.6820   -7.0250  -32.9020 N   0  0  0  0  0  0  0  0  0  0  0  0
  -27.6230   -9.1120  -31.7550 N   0  0  0  0  0  0  0  0  0  0  0  0
  -28.7540   -9.8600  -31.5320 C   0  0  0  0  0  0  0  0  0  0  0  0
  -28.5566  -11.2637  -32.0069 C   0  0  0  0  0  0  0  0  0  0  0  0
  -29.4296  -11.6294  -33.0160 C   0  0  0  0  0  0  0  0  0  0  0  0
  1  2  2  0
  1  3  1  0
  3  4  1  0
  4  5  1  0
  5  6  2  0
M  END
>  <name>  (26) 
Car Nac Nd0 Car Car Car

>  <indices>  (26) 
[0, 1, 2]

>  <dummy>  (26) 
1

>  <tasks>  (26) 
probe_placing close_aromatic_ring close_aromatic_ring

>  <current_task>  (26) 
close_aromatic_ring

>  <prot_clashes>  (26) 
1

>  <NBS phar>  (26) 
0.22000000000000003

>  <NBS_non-phar>  (26) 
0.857022762298584

>  <NBS>  (26) 
1.077022762298584

>  <source_stage>  (26) 
scored

>  <source_iter>  (26) 
2

>  <source_parent_mol>  (26) 
0

>  <source_scenario>  (26) 
0 0

>  <source_rank_in_scored_call>  (26) 
2

>  <source_current_task>  (26) 
close_aromatic_ring

>  <rotatable_bond_torsions>  (26) 
1,0,2,3;0,2,3,4

>  <scenario>  (26) 
0 0

>  <reason_to_skip>  (26) 
incorrect arom ring closing

$$$$

     RDKit          3D

  6  5  0  0  0  0  0  0  0  0999 V2000
  -27.8650   -7.7310  -31.7500 C   0  0  0  0  0  0  0  0  0  0  0  0
  -27.6820   -7.0250  -32.9020 N   0  0  0  0  0  0  0  0  0  0  0  0
  -27.6230   -9.1120  -31.7550 N   0  0  0  0  0  0  0  0  0  0  0  0
  -28.7540   -9.8600  -31.5320 C   0  0  0  0  0  0  0  0  0  0  0  0
  -28.5566  -11.2637  -32.0069 C   0  0  0  0  0  0  0  0  0  0  0  0
    0.0000    0.0000    0.0000 S   0  0  0  0  0  0  0  0  0  0  0  0
  1  2  2  0
  1  3  1  0
  3  4  1  0
  4  5  1  0
  5  6  1  0
M  END
>  <name>  (27) 
Car Nac Nd0 Car Car Sul

>  <indices>  (27) 
[0, 1, 2]

>  <dummy>  (27) 
1

>  <tasks>  (27) 
probe_placing close_aromatic_ring close_aromatic_ring

>  <current_task>  (27) 
close_aromatic_ring

>  <prot_clashes>  (27) 
1

>  <NBS phar>  (27) 
0.22000000000000003

>  <NBS_non-phar>  (27) 
0.857022762298584

>  <NBS>  (27) 
1.077022762298584

>  <source_stage>  (27) 
scored

>  <source_iter>  (27) 
2

>  <source_parent_mol>  (27) 
0

>  <source_scenario>  (27) 
0 0

>  <source_rank_in_scored_call>  (27) 
2

>  <source_current_task>  (27) 
close_aromatic_ring

>  <rotatable_bond_torsions>  (27) 
1,0,2,3;0,2,3,4

>  <scenario>  (27) 
0 0

>  <reason_to_skip>  (27) 
some_atom_counter_exceeded

$$$$

     RDKit          3D

  6  5  0  0  0  0  0  0  0  0999 V2000
  -27.8650   -7.7310  -31.7500 C   0  0  0  0  0  0  0  0  0  0  0  0
  -27.6820   -7.0250  -32.9020 N   0  0  0  0  0  0  0  0  0  0  0  0
  -27.6230   -9.1120  -31.7550 N   0  0  0  0  0  0  0  0  0  0  0  0
  -28.7540   -9.8600  -31.5320 C   0  0  0  0  0  0  0  0  0  0  0  0
  -28.5566  -11.2637  -32.0069 C   0  0  0  0  0  0  0  0  0  0  0  0
    0.0000    0.0000    0.0000 O   0  0  0  0  0  0  0  0  0  0  0  0
  1  2  2  0
  1  3  1  0
  3  4  1  0
  4  5  1  0
  5  6  1  0
M  END
>  <name>  (28) 
Car Nac Nd0 Car Car O_a

>  <indices>  (28) 
[0, 1, 2]

>  <dummy>  (28) 
1

>  <tasks>  (28) 
probe_placing close_aromatic_ring close_aromatic_ring

>  <current_task>  (28) 
close_aromatic_ring

>  <prot_clashes>  (28) 
1

>  <NBS phar>  (28) 
0.22000000000000003

>  <NBS_non-phar>  (28) 
0.857022762298584

>  <NBS>  (28) 
1.077022762298584

>  <source_stage>  (28) 
scored

>  <source_iter>  (28) 
2

>  <source_parent_mol>  (28) 
0

>  <source_scenario>  (28) 
0 0

>  <source_rank_in_scored_call>  (28) 
2

>  <source_current_task>  (28) 
close_aromatic_ring

>  <rotatable_bond_torsions>  (28) 
1,0,2,3;0,2,3,4

>  <scenario>  (28) 
0 0

>  <reason_to_skip>  (28) 
some_atom_counter_exceeded

$$$$

     RDKit          3D

  6  5  0  0  0  0  0  0  0  0999 V2000
  -27.8650   -7.7310  -31.7500 C   0  0  0  0  0  0  0  0  0  0  0  0
  -27.6820   -7.0250  -32.9020 N   0  0  0  0  0  0  0  0  0  0  0  0
  -27.6230   -9.1120  -31.7550 N   0  0  0  0  0  0  0  0  0  0  0  0
  -28.7540   -9.8600  -31.5320 C   0  0  0  0  0  0  0  0  0  0  0  0
  -28.5566  -11.2637  -32.0069 C   0  0  0  0  0  0  0  0  0  0  0  0
    0.0000    0.0000    0.0000 S   0  0  0  0  0  0  0  0  0  0  0  0
  1  2  2  0
  1  3  1  0
  3  4  1  0
  4  5  1  0
  5  6  1  0
M  END
>  <name>  (29) 
Car Nac Nd0 Car Car Sul

>  <indices>  (29) 
[0, 1, 2]

>  <dummy>  (29) 
1

>  <tasks>  (29) 
probe_placing close_aromatic_ring close_aromatic_ring

>  <current_task>  (29) 
close_aromatic_ring

>  <prot_clashes>  (29) 
1

>  <NBS phar>  (29) 
0.22000000000000003

>  <NBS_non-phar>  (29) 
0.857022762298584

>  <NBS>  (29) 
1.077022762298584

>  <source_stage>  (29) 
scored

>  <source_iter>  (29) 
2

>  <source_parent_mol>  (29) 
0

>  <source_scenario>  (29) 
0 0

>  <source_rank_in_scored_call>  (29) 
2

>  <source_current_task>  (29) 
close_aromatic_ring

>  <rotatable_bond_torsions>  (29) 
1,0,2,3;0,2,3,4

>  <scenario>  (29) 
0 0

>  <reason_to_skip>  (29) 
some_atom_counter_exceeded

$$$$

     RDKit          3D

  6  5  0  0  0  0  0  0  0  0999 V2000
  -27.8650   -7.7310  -31.7500 C   0  0  0  0  0  0  0  0  0  0  0  0
  -27.6820   -7.0250  -32.9020 N   0  0  0  0  0  0  0  0  0  0  0  0
  -27.6230   -9.1120  -31.7550 N   0  0  0  0  0  0  0  0  0  0  0  0
  -28.7540   -9.8600  -31.5320 C   0  0  0  0  0  0  0  0  0  0  0  0
  -28.5566  -11.2637  -32.0069 C   0  0  0  0  0  0  0  0  0  0  0  0
    0.0000    0.0000    0.0000 S   0  0  0  0  0  0  0  0  0  0  0  0
  1  2  2  0
  1  3  1  0
  3  4  1  0
  4  5  1  0
  5  6  1  0
M  END
>  <name>  (30) 
Car Nac Nd0 Car Car Sul

>  <indices>  (30) 
[0, 1, 2]

>  <dummy>  (30) 
1

>  <tasks>  (30) 
probe_placing close_aromatic_ring close_aromatic_ring

>  <current_task>  (30) 
close_aromatic_ring

>  <prot_clashes>  (30) 
1

>  <NBS phar>  (30) 
0.22000000000000003

>  <NBS_non-phar>  (30) 
0.857022762298584

>  <NBS>  (30) 
1.077022762298584

>  <source_stage>  (30) 
scored

>  <source_iter>  (30) 
2

>  <source_parent_mol>  (30) 
0

>  <source_scenario>  (30) 
0 0

>  <source_rank_in_scored_call>  (30) 
2

>  <source_current_task>  (30) 
close_aromatic_ring

>  <rotatable_bond_torsions>  (30) 
1,0,2,3;0,2,3,4

>  <scenario>  (30) 
0 0

>  <reason_to_skip>  (30) 
some_atom_counter_exceeded

$$$$

     RDKit          3D

  6  5  0  0  0  0  0  0  0  0999 V2000
  -27.8650   -7.7310  -31.7500 C   0  0  0  0  0  0  0  0  0  0  0  0
  -27.6820   -7.0250  -32.9020 N   0  0  0  0  0  0  0  0  0  0  0  0
  -27.6230   -9.1120  -31.7550 N   0  0  0  0  0  0  0  0  0  0  0  0
  -28.7540   -9.8600  -31.5320 C   0  0  0  0  0  0  0  0  0  0  0  0
  -28.5566  -11.2637  -32.0069 C   0  0  0  0  0  0  0  0  0  0  0  0
  -29.4597  -11.7648  -32.9682 C   0  0  0  0  0  0  0  0  0  0  0  0
  1  2  2  0
  1  3  1  0
  3  4  1  0
  4  5  1  0
  5  6  1  0
M  END
>  <name>  (31) 
Car Nac Nd0 Car Car Car

>  <indices>  (31) 
[0, 1, 2]

>  <dummy>  (31) 
1

>  <tasks>  (31) 
probe_placing close_aromatic_ring close_aromatic_ring

>  <current_task>  (31) 
close_aromatic_ring

>  <prot_clashes>  (31) 
1

>  <NBS phar>  (31) 
0.22000000000000003

>  <NBS_non-phar>  (31) 
0.857022762298584

>  <NBS>  (31) 
1.077022762298584

>  <source_stage>  (31) 
scored

>  <source_iter>  (31) 
2

>  <source_parent_mol>  (31) 
0

>  <source_scenario>  (31) 
0 0

>  <source_rank_in_scored_call>  (31) 
2

>  <source_current_task>  (31) 
close_aromatic_ring

>  <rotatable_bond_torsions>  (31) 
1,0,2,3;0,2,3,4

>  <scenario>  (31) 
0 0

>  <reason_to_skip>  (31) 
incorrect arom ring closing

$$$$

     RDKit          3D

  6  5  0  0  0  0  0  0  0  0999 V2000
  -27.8650   -7.7310  -31.7500 C   0  0  0  0  0  0  0  0  0  0  0  0
  -27.6820   -7.0250  -32.9020 N   0  0  0  0  0  0  0  0  0  0  0  0
  -27.6230   -9.1120  -31.7550 N   0  0  0  0  0  0  0  0  0  0  0  0
  -28.7540   -9.8600  -31.5320 C   0  0  0  0  0  0  0  0  0  0  0  0
  -28.5566  -11.2637  -32.0069 C   0  0  0  0  0  0  0  0  0  0  0  0
  -29.0738  -11.6286  -33.4131 C   0  0  0  0  0  0  0  0  0  0  0  0
  1  2  2  0
  1  3  1  0
  3  4  1  0
  4  5  1  0
  5  6  1  0
M  END
>  <name>  (32) 
Car Nac Nd0 Car Car Car

>  <indices>  (32) 
[0, 1, 2]

>  <dummy>  (32) 
1

>  <tasks>  (32) 
probe_placing close_aromatic_ring close_aromatic_ring

>  <current_task>  (32) 
close_aromatic_ring

>  <prot_clashes>  (32) 
1

>  <NBS phar>  (32) 
0.22000000000000003

>  <NBS_non-phar>  (32) 
0.857022762298584

>  <NBS>  (32) 
1.077022762298584

>  <source_stage>  (32) 
scored

>  <source_iter>  (32) 
2

>  <source_parent_mol>  (32) 
0

>  <source_scenario>  (32) 
0 0

>  <source_rank_in_scored_call>  (32) 
2

>  <source_current_task>  (32) 
close_aromatic_ring

>  <rotatable_bond_torsions>  (32) 
1,0,2,3;0,2,3,4

>  <scenario>  (32) 
0 0

>  <reason_to_skip>  (32) 
incorrect arom ring closing

$$$$

     RDKit          3D

  6  5  0  0  0  0  0  0  0  0999 V2000
  -27.8650   -7.7310  -31.7500 C   0  0  0  0  0  0  0  0  0  0  0  0
  -27.6820   -7.0250  -32.9020 N   0  0  0  0  0  0  0  0  0  0  0  0
  -27.6230   -9.1120  -31.7550 N   0  0  0  0  0  0  0  0  0  0  0  0
  -28.7540   -9.8600  -31.5320 C   0  0  0  0  0  0  0  0  0  0  0  0
  -28.5566  -11.2637  -32.0069 C   0  0  0  0  0  0  0  0  0  0  0  0
  -27.2833  -11.2759  -32.5141 N   0  0  0  0  0  0  0  0  0  0  0  0
  1  2  2  0
  1  3  1  0
  3  4  1  0
  4  5  1  0
  5  6  1  0
M  END
>  <name>  (33) 
Car Nac Nd0 Car Car Nac

>  <indices>  (33) 
[0, 1, 2]

>  <dummy>  (33) 
1

>  <tasks>  (33) 
probe_placing close_aromatic_ring close_aromatic_ring

>  <current_task>  (33) 
close_aromatic_ring

>  <prot_clashes>  (33) 
1

>  <NBS phar>  (33) 
0.22000000000000003

>  <NBS_non-phar>  (33) 
0.857022762298584

>  <NBS>  (33) 
1.077022762298584

>  <source_stage>  (33) 
scored

>  <source_iter>  (33) 
2

>  <source_parent_mol>  (33) 
0

>  <source_scenario>  (33) 
0 0

>  <source_rank_in_scored_call>  (33) 
2

>  <source_current_task>  (33) 
close_aromatic_ring

>  <rotatable_bond_torsions>  (33) 
1,0,2,3;0,2,3,4

>  <scenario>  (33) 
0 0

>  <reason_to_skip>  (33) 
subgraph mismatch

$$$$

     RDKit          3D

  6  5  0  0  0  0  0  0  0  0999 V2000
  -27.8650   -7.7310  -31.7500 C   0  0  0  0  0  0  0  0  0  0  0  0
  -27.6820   -7.0250  -32.9020 N   0  0  0  0  0  0  0  0  0  0  0  0
  -27.6230   -9.1120  -31.7550 N   0  0  0  0  0  0  0  0  0  0  0  0
  -28.7540   -9.8600  -31.5320 C   0  0  0  0  0  0  0  0  0  0  0  0
  -28.5566  -11.2637  -32.0069 C   0  0  0  0  0  0  0  0  0  0  0  0
  -27.2562  -11.2719  -32.4929 C   0  0  0  0  0  0  0  0  0  0  0  0
  1  2  2  0
  1  3  1  0
  3  4  1  0
  4  5  1  0
  5  6  1  0
M  END
>  <name>  (34) 
Car Nac Nd0 Car Car Car

>  <indices>  (34) 
[0, 1, 2]

>  <dummy>  (34) 
1

>  <tasks>  (34) 
probe_placing close_aromatic_ring close_aromatic_ring

>  <current_task>  (34) 
close_aromatic_ring

>  <prot_clashes>  (34) 
1

>  <NBS phar>  (34) 
0.22000000000000003

>  <NBS_non-phar>  (34) 
0.857022762298584

>  <NBS>  (34) 
1.077022762298584

>  <source_stage>  (34) 
scored

>  <source_iter>  (34) 
2

>  <source_parent_mol>  (34) 
0

>  <source_scenario>  (34) 
0 0

>  <source_rank_in_scored_call>  (34) 
2

>  <source_current_task>  (34) 
close_aromatic_ring

>  <rotatable_bond_torsions>  (34) 
1,0,2,3;0,2,3,4

>  <scenario>  (34) 
0 0

>  <reason_to_skip>  (34) 
subgraph mismatch

$$$$

     RDKit          3D

  6  5  0  0  0  0  0  0  0  0999 V2000
  -27.8650   -7.7310  -31.7500 C   0  0  0  0  0  0  0  0  0  0  0  0
  -27.6820   -7.0250  -32.9020 N   0  0  0  0  0  0  0  0  0  0  0  0
  -27.6230   -9.1120  -31.7550 N   0  0  0  0  0  0  0  0  0  0  0  0
  -28.7540   -9.8600  -31.5320 C   0  0  0  0  0  0  0  0  0  0  0  0
  -29.8265   -8.9613  -31.3539 C   0  0  0  0  0  0  0  0  0  0  0  0
  -31.2812   -9.6213  -31.1572 C   0  0  0  0  0  0  0  0  0  0  0  0
  1  2  2  0
  1  3  1  0
  3  4  1  0
  4  5  2  3
  5  6  1  0
M  END
>  <name>  (1) 
Car Nac Nd0 Car Car Car

>  <indices>  (1) 
[0, 1, 2]

>  <dummy>  (1) 
1

>  <tasks>  (1) 
probe_placing close_aromatic_ring close_aromatic_ring

>  <current_task>  (1) 
close_aromatic_ring

>  <prot_clashes>  (1) 
7

>  <NBS phar>  (1) 
0.22000000000000003

>  <NBS_non-phar>  (1) 
0.7484323978424072

>  <NBS>  (1) 
0.9684323978424072

>  <source_stage>  (1) 
scored

>  <source_iter>  (1) 
2

>  <source_parent_mol>  (1) 
0

>  <source_scenario>  (1) 
0 0

>  <source_rank_in_scored_call>  (1) 
7

>  <source_current_task>  (1) 
close_aromatic_ring

>  <rotatable_bond_torsions>  (1) 
1,0,2,3;0,2,3,4

>  <scenario>  (1) 
0 0

>  <reason_to_skip>  (1) 
incorrect arom ring closing

$$$$

     RDKit          3D

  6  5  0  0  0  0  0  0  0  0999 V2000
  -27.8650   -7.7310  -31.7500 C   0  0  0  0  0  0  0  0  0  0  0  0
  -27.6820   -7.0250  -32.9020 N   0  0  0  0  0  0  0  0  0  0  0  0
  -27.6230   -9.1120  -31.7550 N   0  0  0  0  0  0  0  0  0  0  0  0
  -28.7540   -9.8600  -31.5320 C   0  0  0  0  0  0  0  0  0  0  0  0
  -29.8265   -8.9613  -31.3539 C   0  0  0  0  0  0  0  0  0  0  0  0
  -30.1909   -7.6503  -31.3175 N   0  0  0  0  0  0  0  0  0  0  0  0
  1  2  2  0
  1  3  1  0
  3  4  1  0
  4  5  2  3
  5  6  1  0
M  END
>  <name>  (2) 
Car Nac Nd0 Car Car Nac

>  <indices>  (2) 
[0, 1, 2]

>  <dummy>  (2) 
1

>  <tasks>  (2) 
probe_placing close_aromatic_ring close_aromatic_ring

>  <current_task>  (2) 
close_aromatic_ring

>  <prot_clashes>  (2) 
7

>  <NBS phar>  (2) 
0.22000000000000003

>  <NBS_non-phar>  (2) 
0.7484323978424072

>  <NBS>  (2) 
0.9684323978424072

>  <source_stage>  (2) 
scored

>  <source_iter>  (2) 
2

>  <source_parent_mol>  (2) 
0

>  <source_scenario>  (2) 
0 0

>  <source_rank_in_scored_call>  (2) 
7

>  <source_current_task>  (2) 
close_aromatic_ring

>  <rotatable_bond_torsions>  (2) 
1,0,2,3;0,2,3,4

>  <scenario>  (2) 
0 0

>  <reason_to_skip>  (2) 
bad angles

$$$$

     RDKit          3D

  6  5  0  0  0  0  0  0  0  0999 V2000
  -27.8650   -7.7310  -31.7500 C   0  0  0  0  0  0  0  0  0  0  0  0
  -27.6820   -7.0250  -32.9020 N   0  0  0  0  0  0  0  0  0  0  0  0
  -27.6230   -9.1120  -31.7550 N   0  0  0  0  0  0  0  0  0  0  0  0
  -28.7540   -9.8600  -31.5320 C   0  0  0  0  0  0  0  0  0  0  0  0
  -29.8265   -8.9613  -31.3539 C   0  0  0  0  0  0  0  0  0  0  0  0
  -30.9219   -9.9434  -31.1703 N   0  0  0  0  0  0  0  0  0  0  0  0
  1  2  2  0
  1  3  1  0
  3  4  1  0
  4  5  2  3
  5  6  1  0
M  END
>  <name>  (3) 
Car Nac Nd0 Car Car Nac

>  <indices>  (3) 
[0, 1, 2]

>  <dummy>  (3) 
1

>  <tasks>  (3) 
probe_placing close_aromatic_ring close_aromatic_ring

>  <current_task>  (3) 
close_aromatic_ring

>  <prot_clashes>  (3) 
7

>  <NBS phar>  (3) 
0.22000000000000003

>  <NBS_non-phar>  (3) 
0.7484323978424072

>  <NBS>  (3) 
0.9684323978424072

>  <source_stage>  (3) 
scored

>  <source_iter>  (3) 
2

>  <source_parent_mol>  (3) 
0

>  <source_scenario>  (3) 
0 0

>  <source_rank_in_scored_call>  (3) 
7

>  <source_current_task>  (3) 
close_aromatic_ring

>  <rotatable_bond_torsions>  (3) 
1,0,2,3;0,2,3,4

>  <scenario>  (3) 
0 0

>  <reason_to_skip>  (3) 
bad angles

$$$$

     RDKit          3D

  6  5  0  0  0  0  0  0  0  0999 V2000
  -27.8650   -7.7310  -31.7500 C   0  0  0  0  0  0  0  0  0  0  0  0
  -27.6820   -7.0250  -32.9020 N   0  0  0  0  0  0  0  0  0  0  0  0
  -27.6230   -9.1120  -31.7550 N   0  0  0  0  0  0  0  0  0  0  0  0
  -28.7540   -9.8600  -31.5320 C   0  0  0  0  0  0  0  0  0  0  0  0
  -29.8265   -8.9613  -31.3539 C   0  0  0  0  0  0  0  0  0  0  0  0
  -30.1962   -7.5756  -31.3443 C   0  0  0  0  0  0  0  0  0  0  0  0
  1  2  2  0
  1  3  1  0
  3  4  1  0
  4  5  2  3
  5  6  1  0
M  END
>  <name>  (4) 
Car Nac Nd0 Car Car Car

>  <indices>  (4) 
[0, 1, 2]

>  <dummy>  (4) 
1

>  <tasks>  (4) 
probe_placing close_aromatic_ring close_aromatic_ring

>  <current_task>  (4) 
close_aromatic_ring

>  <prot_clashes>  (4) 
7

>  <NBS phar>  (4) 
0.22000000000000003

>  <NBS_non-phar>  (4) 
0.7484323978424072

>  <NBS>  (4) 
0.9684323978424072

>  <source_stage>  (4) 
scored

>  <source_iter>  (4) 
2

>  <source_parent_mol>  (4) 
0

>  <source_scenario>  (4) 
0 0

>  <source_rank_in_scored_call>  (4) 
7

>  <source_current_task>  (4) 
close_aromatic_ring

>  <rotatable_bond_torsions>  (4) 
1,0,2,3;0,2,3,4

>  <scenario>  (4) 
0 0

>  <reason_to_skip>  (4) 
bad angles

$$$$

     RDKit          3D

  6  5  0  0  0  0  0  0  0  0999 V2000
  -27.8650   -7.7310  -31.7500 C   0  0  0  0  0  0  0  0  0  0  0  0
  -27.6820   -7.0250  -32.9020 N   0  0  0  0  0  0  0  0  0  0  0  0
  -27.6230   -9.1120  -31.7550 N   0  0  0  0  0  0  0  0  0  0  0  0
  -28.7540   -9.8600  -31.5320 C   0  0  0  0  0  0  0  0  0  0  0  0
  -29.8265   -8.9613  -31.3539 C   0  0  0  0  0  0  0  0  0  0  0  0
  -31.1272   -9.6623  -31.0873 C   0  0  0  0  0  0  0  0  0  0  0  0
  1  2  2  0
  1  3  1  0
  3  4  1  0
  4  5  2  3
  5  6  1  0
M  END
>  <name>  (5) 
Car Nac Nd0 Car Car Car

>  <indices>  (5) 
[0, 1, 2]

>  <dummy>  (5) 
1

>  <tasks>  (5) 
probe_placing close_aromatic_ring close_aromatic_ring

>  <current_task>  (5) 
close_aromatic_ring

>  <prot_clashes>  (5) 
7

>  <NBS phar>  (5) 
0.22000000000000003

>  <NBS_non-phar>  (5) 
0.7484323978424072

>  <NBS>  (5) 
0.9684323978424072

>  <source_stage>  (5) 
scored

>  <source_iter>  (5) 
2

>  <source_parent_mol>  (5) 
0

>  <source_scenario>  (5) 
0 0

>  <source_rank_in_scored_call>  (5) 
7

>  <source_current_task>  (5) 
close_aromatic_ring

>  <rotatable_bond_torsions>  (5) 
1,0,2,3;0,2,3,4

>  <scenario>  (5) 
0 0

>  <reason_to_skip>  (5) 
incorrect arom ring closing

$$$$

     RDKit          3D

  6  5  0  0  0  0  0  0  0  0999 V2000
  -27.8650   -7.7310  -31.7500 C   0  0  0  0  0  0  0  0  0  0  0  0
  -27.6820   -7.0250  -32.9020 N   0  0  0  0  0  0  0  0  0  0  0  0
  -27.6230   -9.1120  -31.7550 N   0  0  0  0  0  0  0  0  0  0  0  0
  -28.7540   -9.8600  -31.5320 C   0  0  0  0  0  0  0  0  0  0  0  0
  -29.8265   -8.9613  -31.3539 C   0  0  0  0  0  0  0  0  0  0  0  0
  -29.9711   -7.6201  -31.3546 C   0  0  0  0  0  0  0  0  0  0  0  0
  1  2  2  0
  1  3  1  0
  3  4  1  0
  4  5  2  3
  5  6  1  0
M  END
>  <name>  (6) 
Car Nac Nd0 Car Car Car

>  <indices>  (6) 
[0, 1, 2]

>  <dummy>  (6) 
1

>  <tasks>  (6) 
probe_placing close_aromatic_ring close_aromatic_ring

>  <current_task>  (6) 
close_aromatic_ring

>  <prot_clashes>  (6) 
7

>  <NBS phar>  (6) 
0.22000000000000003

>  <NBS_non-phar>  (6) 
0.7484323978424072

>  <NBS>  (6) 
0.9684323978424072

>  <source_stage>  (6) 
scored

>  <source_iter>  (6) 
2

>  <source_parent_mol>  (6) 
0

>  <source_scenario>  (6) 
0 0

>  <source_rank_in_scored_call>  (6) 
7

>  <source_current_task>  (6) 
close_aromatic_ring

>  <rotatable_bond_torsions>  (6) 
1,0,2,3;0,2,3,4

>  <scenario>  (6) 
0 0

>  <reason_to_skip>  (6) 
bad angles

$$$$

     RDKit          3D

  6  6  0  0  0  0  0  0  0  0999 V2000
  -27.8760   -7.7041  -31.7496 C   0  0  0  0  0  0  0  0  0  0  0  0
  -27.6820   -7.0250  -32.9020 N   0  0  0  0  0  0  0  0  0  0  0  0
  -27.6384   -9.1184  -31.7534 N   0  0  0  0  0  0  0  0  0  0  0  0
  -28.7950   -9.8777  -31.5207 C   0  0  0  0  0  0  0  0  0  0  0  0
  -29.7740   -9.0181  -31.3658 C   0  0  0  0  0  0  0  0  0  0  0  0
  -29.3442   -7.6220  -31.4836 C   0  0  0  0  0  0  0  0  0  0  0  0
  1  2  2  0
  1  3  1  0
  3  4  1  0
  4  5  2  0
  5  6  1  0
  1  6  1  0
M  END
>  <name>  (7) 
Car Nac Nd0 Car Car Car

>  <indices>  (7) 
[0, 1, 2]

>  <dummy>  (7) 
1

>  <tasks>  (7) 
probe_placing close_aromatic_ring close_aromatic_ring

>  <current_task>  (7) 
close_aromatic_ring

>  <prot_clashes>  (7) 
7

>  <NBS phar>  (7) 
0.22000000000000003

>  <NBS_non-phar>  (7) 
0.7484323978424072

>  <NBS>  (7) 
0.9684323978424072

>  <source_stage>  (7) 
scored

>  <source_iter>  (7) 
2

>  <source_parent_mol>  (7) 
0

>  <source_scenario>  (7) 
0 0

>  <source_rank_in_scored_call>  (7) 
7

>  <source_current_task>  (7) 
close_aromatic_ring

>  <rotatable_bond_torsions>  (7) 
1,0,2,3;0,2,3,4

>  <scenario>  (7) 
0 0

>  <reason_to_skip>  (7) 
Cs2 not planar

$$$$

     RDKit          3D

  6  5  0  0  0  0  0  0  0  0999 V2000
  -27.8650   -7.7310  -31.7500 C   0  0  0  0  0  0  0  0  0  0  0  0
  -27.6820   -7.0250  -32.9020 N   0  0  0  0  0  0  0  0  0  0  0  0
  -27.6230   -9.1120  -31.7550 N   0  0  0  0  0  0  0  0  0  0  0  0
  -28.7540   -9.8600  -31.5320 C   0  0  0  0  0  0  0  0  0  0  0  0
  -29.8265   -8.9613  -31.3539 C   0  0  0  0  0  0  0  0  0  0  0  0
    0.0000    0.0000    0.0000 O   0  0  0  0  0  0  0  0  0  0  0  0
  1  2  2  0
  1  3  1  0
  3  4  1  0
  4  5  2  3
  5  6  1  0
M  END
>  <name>  (8) 
Car Nac Nd0 Car Car O_a

>  <indices>  (8) 
[0, 1, 2]

>  <dummy>  (8) 
1

>  <tasks>  (8) 
probe_placing close_aromatic_ring close_aromatic_ring

>  <current_task>  (8) 
close_aromatic_ring

>  <prot_clashes>  (8) 
7

>  <NBS phar>  (8) 
0.22000000000000003

>  <NBS_non-phar>  (8) 
0.7484323978424072

>  <NBS>  (8) 
0.9684323978424072

>  <source_stage>  (8) 
scored

>  <source_iter>  (8) 
2

>  <source_parent_mol>  (8) 
0

>  <source_scenario>  (8) 
0 0

>  <source_rank_in_scored_call>  (8) 
7

>  <source_current_task>  (8) 
close_aromatic_ring

>  <rotatable_bond_torsions>  (8) 
1,0,2,3;0,2,3,4

>  <scenario>  (8) 
0 0

>  <reason_to_skip>  (8) 
some_atom_counter_exceeded

$$$$

     RDKit          3D

  6  5  0  0  0  0  0  0  0  0999 V2000
  -27.8650   -7.7310  -31.7500 C   0  0  0  0  0  0  0  0  0  0  0  0
  -27.6820   -7.0250  -32.9020 N   0  0  0  0  0  0  0  0  0  0  0  0
  -27.6230   -9.1120  -31.7550 N   0  0  0  0  0  0  0  0  0  0  0  0
  -28.7540   -9.8600  -31.5320 C   0  0  0  0  0  0  0  0  0  0  0  0
  -29.8265   -8.9613  -31.3539 C   0  0  0  0  0  0  0  0  0  0  0  0
  -30.0234   -7.6485  -31.3406 N   0  0  0  0  0  0  0  0  0  0  0  0
  1  2  2  0
  1  3  1  0
  3  4  1  0
  4  5  2  3
  5  6  1  0
M  END
>  <name>  (9) 
Car Nac Nd0 Car Car Nac

>  <indices>  (9) 
[0, 1, 2]

>  <dummy>  (9) 
1

>  <tasks>  (9) 
probe_placing close_aromatic_ring close_aromatic_ring

>  <current_task>  (9) 
close_aromatic_ring

>  <prot_clashes>  (9) 
7

>  <NBS phar>  (9) 
0.22000000000000003

>  <NBS_non-phar>  (9) 
0.7484323978424072

>  <NBS>  (9) 
0.9684323978424072

>  <source_stage>  (9) 
scored

>  <source_iter>  (9) 
2

>  <source_parent_mol>  (9) 
0

>  <source_scenario>  (9) 
0 0

>  <source_rank_in_scored_call>  (9) 
7

>  <source_current_task>  (9) 
close_aromatic_ring

>  <rotatable_bond_torsions>  (9) 
1,0,2,3;0,2,3,4

>  <scenario>  (9) 
0 0

>  <reason_to_skip>  (9) 
bad angles

$$$$

     RDKit          3D

  6  5  0  0  0  0  0  0  0  0999 V2000
  -27.8650   -7.7310  -31.7500 C   0  0  0  0  0  0  0  0  0  0  0  0
  -27.6820   -7.0250  -32.9020 N   0  0  0  0  0  0  0  0  0  0  0  0
  -27.6230   -9.1120  -31.7550 N   0  0  0  0  0  0  0  0  0  0  0  0
  -28.7540   -9.8600  -31.5320 C   0  0  0  0  0  0  0  0  0  0  0  0
  -29.8265   -8.9613  -31.3539 C   0  0  0  0  0  0  0  0  0  0  0  0
  -31.2084   -9.2519  -31.0938 N   0  0  0  0  0  0  0  0  0  0  0  0
  1  2  2  0
  1  3  1  0
  3  4  1  0
  4  5  2  3
  5  6  1  0
M  END
>  <name>  (10) 
Car Nac Nd0 Car Car Nd0

>  <indices>  (10) 
[0, 1, 2]

>  <dummy>  (10) 
1

>  <tasks>  (10) 
probe_placing close_aromatic_ring close_aromatic_ring

>  <current_task>  (10) 
close_aromatic_ring

>  <prot_clashes>  (10) 
7

>  <NBS phar>  (10) 
0.22000000000000003

>  <NBS_non-phar>  (10) 
0.7484323978424072

>  <NBS>  (10) 
0.9684323978424072

>  <source_stage>  (10) 
scored

>  <source_iter>  (10) 
2

>  <source_parent_mol>  (10) 
0

>  <source_scenario>  (10) 
0 0

>  <source_rank_in_scored_call>  (10) 
7

>  <source_current_task>  (10) 
close_aromatic_ring

>  <rotatable_bond_torsions>  (10) 
1,0,2,3;0,2,3,4

>  <scenario>  (10) 
0 0

>  <reason_to_skip>  (10) 
incorrect arom ring closing

$$$$

     RDKit          3D

  6  5  0  0  0  0  0  0  0  0999 V2000
  -27.8650   -7.7310  -31.7500 C   0  0  0  0  0  0  0  0  0  0  0  0
  -27.6820   -7.0250  -32.9020 N   0  0  0  0  0  0  0  0  0  0  0  0
  -27.6230   -9.1120  -31.7550 N   0  0  0  0  0  0  0  0  0  0  0  0
  -28.7540   -9.8600  -31.5320 C   0  0  0  0  0  0  0  0  0  0  0  0
  -29.8265   -8.9613  -31.3539 C   0  0  0  0  0  0  0  0  0  0  0  0
  -31.1282   -9.6030  -31.1142 N   0  0  0  0  0  0  0  0  0  0  0  0
  1  2  2  0
  1  3  1  0
  3  4  1  0
  4  5  2  3
  5  6  1  0
M  END
>  <name>  (11) 
Car Nac Nd0 Car Car Nac

>  <indices>  (11) 
[0, 1, 2]

>  <dummy>  (11) 
1

>  <tasks>  (11) 
probe_placing close_aromatic_ring close_aromatic_ring

>  <current_task>  (11) 
close_aromatic_ring

>  <prot_clashes>  (11) 
7

>  <NBS phar>  (11) 
0.22000000000000003

>  <NBS_non-phar>  (11) 
0.7484323978424072

>  <NBS>  (11) 
0.9684323978424072

>  <source_stage>  (11) 
scored

>  <source_iter>  (11) 
2

>  <source_parent_mol>  (11) 
0

>  <source_scenario>  (11) 
0 0

>  <source_rank_in_scored_call>  (11) 
7

>  <source_current_task>  (11) 
close_aromatic_ring

>  <rotatable_bond_torsions>  (11) 
1,0,2,3;0,2,3,4

>  <scenario>  (11) 
0 0

>  <reason_to_skip>  (11) 
incorrect arom ring closing

$$$$

     RDKit          3D

  6  5  0  0  0  0  0  0  0  0999 V2000
  -27.8650   -7.7310  -31.7500 C   0  0  0  0  0  0  0  0  0  0  0  0
  -27.6820   -7.0250  -32.9020 N   0  0  0  0  0  0  0  0  0  0  0  0
  -27.6230   -9.1120  -31.7550 N   0  0  0  0  0  0  0  0  0  0  0  0
  -28.7540   -9.8600  -31.5320 C   0  0  0  0  0  0  0  0  0  0  0  0
  -29.8265   -8.9613  -31.3539 C   0  0  0  0  0  0  0  0  0  0  0  0
    0.0000    0.0000    0.0000 O   0  0  0  0  0  0  0  0  0  0  0  0
  1  2  2  0
  1  3  1  0
  3  4  1  0
  4  5  2  3
  5  6  1  0
M  END
>  <name>  (12) 
Car Nac Nd0 Car Car O_a

>  <indices>  (12) 
[0, 1, 2]

>  <dummy>  (12) 
1

>  <tasks>  (12) 
probe_placing close_aromatic_ring close_aromatic_ring

>  <current_task>  (12) 
close_aromatic_ring

>  <prot_clashes>  (12) 
7

>  <NBS phar>  (12) 
0.22000000000000003

>  <NBS_non-phar>  (12) 
0.7484323978424072

>  <NBS>  (12) 
0.9684323978424072

>  <source_stage>  (12) 
scored

>  <source_iter>  (12) 
2

>  <source_parent_mol>  (12) 
0

>  <source_scenario>  (12) 
0 0

>  <source_rank_in_scored_call>  (12) 
7

>  <source_current_task>  (12) 
close_aromatic_ring

>  <rotatable_bond_torsions>  (12) 
1,0,2,3;0,2,3,4

>  <scenario>  (12) 
0 0

>  <reason_to_skip>  (12) 
some_atom_counter_exceeded

$$$$

     RDKit          3D

  6  5  0  0  0  0  0  0  0  0999 V2000
  -27.8650   -7.7310  -31.7500 C   0  0  0  0  0  0  0  0  0  0  0  0
  -27.6820   -7.0250  -32.9020 N   0  0  0  0  0  0  0  0  0  0  0  0
  -27.6230   -9.1120  -31.7550 N   0  0  0  0  0  0  0  0  0  0  0  0
  -28.7540   -9.8600  -31.5320 C   0  0  0  0  0  0  0  0  0  0  0  0
  -29.8265   -8.9613  -31.3539 C   0  0  0  0  0  0  0  0  0  0  0  0
  -30.6718   -8.8705  -32.5199 C   0  0  0  0  0  0  0  0  0  0  0  0
  1  2  2  0
  1  3  1  0
  3  4  1  0
  4  5  2  3
  5  6  1  0
M  END
>  <name>  (13) 
Car Nac Nd0 Car Car Car

>  <indices>  (13) 
[0, 1, 2]

>  <dummy>  (13) 
1

>  <tasks>  (13) 
probe_placing close_aromatic_ring close_aromatic_ring

>  <current_task>  (13) 
close_aromatic_ring

>  <prot_clashes>  (13) 
7

>  <NBS phar>  (13) 
0.22000000000000003

>  <NBS_non-phar>  (13) 
0.7484323978424072

>  <NBS>  (13) 
0.9684323978424072

>  <source_stage>  (13) 
scored

>  <source_iter>  (13) 
2

>  <source_parent_mol>  (13) 
0

>  <source_scenario>  (13) 
0 0

>  <source_rank_in_scored_call>  (13) 
7

>  <source_current_task>  (13) 
close_aromatic_ring

>  <rotatable_bond_torsions>  (13) 
1,0,2,3;0,2,3,4

>  <scenario>  (13) 
0 0

>  <reason_to_skip>  (13) 
incorrect arom ring closing

$$$$

     RDKit          3D

  6  5  0  0  0  0  0  0  0  0999 V2000
  -27.8650   -7.7310  -31.7500 C   0  0  0  0  0  0  0  0  0  0  0  0
  -27.6820   -7.0250  -32.9020 N   0  0  0  0  0  0  0  0  0  0  0  0
  -27.6230   -9.1120  -31.7550 N   0  0  0  0  0  0  0  0  0  0  0  0
  -28.7540   -9.8600  -31.5320 C   0  0  0  0  0  0  0  0  0  0  0  0
  -29.8265   -8.9613  -31.3539 C   0  0  0  0  0  0  0  0  0  0  0  0
  -29.8215   -7.6538  -31.4043 N   0  0  0  0  0  0  0  0  0  0  0  0
  1  2  2  0
  1  3  1  0
  3  4  1  0
  4  5  2  3
  5  6  1  0
M  END
>  <name>  (14) 
Car Nac Nd0 Car Car Nd0

>  <indices>  (14) 
[0, 1, 2]

>  <dummy>  (14) 
1

>  <tasks>  (14) 
probe_placing close_aromatic_ring close_aromatic_ring

>  <current_task>  (14) 
close_aromatic_ring

>  <prot_clashes>  (14) 
7

>  <NBS phar>  (14) 
0.22000000000000003

>  <NBS_non-phar>  (14) 
0.7484323978424072

>  <NBS>  (14) 
0.9684323978424072

>  <source_stage>  (14) 
scored

>  <source_iter>  (14) 
2

>  <source_parent_mol>  (14) 
0

>  <source_scenario>  (14) 
0 0

>  <source_rank_in_scored_call>  (14) 
7

>  <source_current_task>  (14) 
close_aromatic_ring

>  <rotatable_bond_torsions>  (14) 
1,0,2,3;0,2,3,4

>  <scenario>  (14) 
0 0

>  <reason_to_skip>  (14) 
incorrect arom ring closing

$$$$

     RDKit          3D

  6  5  0  0  0  0  0  0  0  0999 V2000
  -27.8650   -7.7310  -31.7500 C   0  0  0  0  0  0  0  0  0  0  0  0
  -27.6820   -7.0250  -32.9020 N   0  0  0  0  0  0  0  0  0  0  0  0
  -27.6230   -9.1120  -31.7550 N   0  0  0  0  0  0  0  0  0  0  0  0
  -28.7540   -9.8600  -31.5320 C   0  0  0  0  0  0  0  0  0  0  0  0
  -29.8265   -8.9613  -31.3539 C   0  0  0  0  0  0  0  0  0  0  0  0
  -31.0572   -9.6068  -31.1322 N   0  0  0  0  0  0  0  0  0  0  0  0
  1  2  2  0
  1  3  1  0
  3  4  1  0
  4  5  2  3
  5  6  1  0
M  END
>  <name>  (15) 
Car Nac Nd0 Car Car Nd0

>  <indices>  (15) 
[0, 1, 2]

>  <dummy>  (15) 
1

>  <tasks>  (15) 
probe_placing close_aromatic_ring close_aromatic_ring

>  <current_task>  (15) 
close_aromatic_ring

>  <prot_clashes>  (15) 
7

>  <NBS phar>  (15) 
0.22000000000000003

>  <NBS_non-phar>  (15) 
0.7484323978424072

>  <NBS>  (15) 
0.9684323978424072

>  <source_stage>  (15) 
scored

>  <source_iter>  (15) 
2

>  <source_parent_mol>  (15) 
0

>  <source_scenario>  (15) 
0 0

>  <source_rank_in_scored_call>  (15) 
7

>  <source_current_task>  (15) 
close_aromatic_ring

>  <rotatable_bond_torsions>  (15) 
1,0,2,3;0,2,3,4

>  <scenario>  (15) 
0 0

>  <reason_to_skip>  (15) 
incorrect arom ring closing

$$$$

     RDKit          3D

  6  5  0  0  0  0  0  0  0  0999 V2000
  -27.8650   -7.7310  -31.7500 C   0  0  0  0  0  0  0  0  0  0  0  0
  -27.6820   -7.0250  -32.9020 N   0  0  0  0  0  0  0  0  0  0  0  0
  -27.6230   -9.1120  -31.7550 N   0  0  0  0  0  0  0  0  0  0  0  0
  -28.7540   -9.8600  -31.5320 C   0  0  0  0  0  0  0  0  0  0  0  0
  -29.8265   -8.9613  -31.3539 C   0  0  0  0  0  0  0  0  0  0  0  0
    0.0000    0.0000    0.0000 S   0  0  0  0  0  0  0  0  0  0  0  0
  1  2  2  0
  1  3  1  0
  3  4  1  0
  4  5  2  3
  5  6  1  0
M  END
>  <name>  (16) 
Car Nac Nd0 Car Car Sul

>  <indices>  (16) 
[0, 1, 2]

>  <dummy>  (16) 
1

>  <tasks>  (16) 
probe_placing close_aromatic_ring close_aromatic_ring

>  <current_task>  (16) 
close_aromatic_ring

>  <prot_clashes>  (16) 
7

>  <NBS phar>  (16) 
0.22000000000000003

>  <NBS_non-phar>  (16) 
0.7484323978424072

>  <NBS>  (16) 
0.9684323978424072

>  <source_stage>  (16) 
scored

>  <source_iter>  (16) 
2

>  <source_parent_mol>  (16) 
0

>  <source_scenario>  (16) 
0 0

>  <source_rank_in_scored_call>  (16) 
7

>  <source_current_task>  (16) 
close_aromatic_ring

>  <rotatable_bond_torsions>  (16) 
1,0,2,3;0,2,3,4

>  <scenario>  (16) 
0 0

>  <reason_to_skip>  (16) 
some_atom_counter_exceeded

$$$$

     RDKit          3D

  6  5  0  0  0  0  0  0  0  0999 V2000
  -27.8650   -7.7310  -31.7500 C   0  0  0  0  0  0  0  0  0  0  0  0
  -27.6820   -7.0250  -32.9020 N   0  0  0  0  0  0  0  0  0  0  0  0
  -27.6230   -9.1120  -31.7550 N   0  0  0  0  0  0  0  0  0  0  0  0
  -28.7540   -9.8600  -31.5320 C   0  0  0  0  0  0  0  0  0  0  0  0
  -29.8265   -8.9613  -31.3539 C   0  0  0  0  0  0  0  0  0  0  0  0
  -30.9554   -8.8771  -32.3246 C   0  0  0  0  0  0  0  0  0  0  0  0
  1  2  2  0
  1  3  1  0
  3  4  1  0
  4  5  2  3
  5  6  1  0
M  END
>  <name>  (17) 
Car Nac Nd0 Car Car Car

>  <indices>  (17) 
[0, 1, 2]

>  <dummy>  (17) 
1

>  <tasks>  (17) 
probe_placing close_aromatic_ring close_aromatic_ring

>  <current_task>  (17) 
close_aromatic_ring

>  <prot_clashes>  (17) 
7

>  <NBS phar>  (17) 
0.22000000000000003

>  <NBS_non-phar>  (17) 
0.7484323978424072

>  <NBS>  (17) 
0.9684323978424072

>  <source_stage>  (17) 
scored

>  <source_iter>  (17) 
2

>  <source_parent_mol>  (17) 
0

>  <source_scenario>  (17) 
0 0

>  <source_rank_in_scored_call>  (17) 
7

>  <source_current_task>  (17) 
close_aromatic_ring

>  <rotatable_bond_torsions>  (17) 
1,0,2,3;0,2,3,4

>  <scenario>  (17) 
0 0

>  <reason_to_skip>  (17) 
incorrect arom ring closing

$$$$

     RDKit          3D

  6  5  0  0  0  0  0  0  0  0999 V2000
  -27.8650   -7.7310  -31.7500 C   0  0  0  0  0  0  0  0  0  0  0  0
  -27.6820   -7.0250  -32.9020 N   0  0  0  0  0  0  0  0  0  0  0  0
  -27.6230   -9.1120  -31.7550 N   0  0  0  0  0  0  0  0  0  0  0  0
  -28.7540   -9.8600  -31.5320 C   0  0  0  0  0  0  0  0  0  0  0  0
  -29.8265   -8.9613  -31.3539 C   0  0  0  0  0  0  0  0  0  0  0  0
  -30.1829   -7.7174  -31.3590 N   0  0  0  0  0  0  0  0  0  0  0  0
  1  2  2  0
  1  3  1  0
  3  4  1  0
  4  5  2  3
  5  6  1  0
M  END
>  <name>  (18) 
Car Nac Nd0 Car Car Nd0

>  <indices>  (18) 
[0, 1, 2]

>  <dummy>  (18) 
1

>  <tasks>  (18) 
probe_placing close_aromatic_ring close_aromatic_ring

>  <current_task>  (18) 
close_aromatic_ring

>  <prot_clashes>  (18) 
7

>  <NBS phar>  (18) 
0.22000000000000003

>  <NBS_non-phar>  (18) 
0.7484323978424072

>  <NBS>  (18) 
0.9684323978424072

>  <source_stage>  (18) 
scored

>  <source_iter>  (18) 
2

>  <source_parent_mol>  (18) 
0

>  <source_scenario>  (18) 
0 0

>  <source_rank_in_scored_call>  (18) 
7

>  <source_current_task>  (18) 
close_aromatic_ring

>  <rotatable_bond_torsions>  (18) 
1,0,2,3;0,2,3,4

>  <scenario>  (18) 
0 0

>  <reason_to_skip>  (18) 
bad angles

$$$$

     RDKit          3D

  6  5  0  0  0  0  0  0  0  0999 V2000
  -27.8650   -7.7310  -31.7500 C   0  0  0  0  0  0  0  0  0  0  0  0
  -27.6820   -7.0250  -32.9020 N   0  0  0  0  0  0  0  0  0  0  0  0
  -27.6230   -9.1120  -31.7550 N   0  0  0  0  0  0  0  0  0  0  0  0
  -28.7540   -9.8600  -31.5320 C   0  0  0  0  0  0  0  0  0  0  0  0
  -29.8265   -8.9613  -31.3539 C   0  0  0  0  0  0  0  0  0  0  0  0
    0.0000    0.0000    0.0000 O   0  0  0  0  0  0  0  0  0  0  0  0
  1  2  2  0
  1  3  1  0
  3  4  1  0
  4  5  2  3
  5  6  1  0
M  END
>  <name>  (19) 
Car Nac Nd0 Car Car O_a

>  <indices>  (19) 
[0, 1, 2]

>  <dummy>  (19) 
1

>  <tasks>  (19) 
probe_placing close_aromatic_ring close_aromatic_ring

>  <current_task>  (19) 
close_aromatic_ring

>  <prot_clashes>  (19) 
7

>  <NBS phar>  (19) 
0.22000000000000003

>  <NBS_non-phar>  (19) 
0.7484323978424072

>  <NBS>  (19) 
0.9684323978424072

>  <source_stage>  (19) 
scored

>  <source_iter>  (19) 
2

>  <source_parent_mol>  (19) 
0

>  <source_scenario>  (19) 
0 0

>  <source_rank_in_scored_call>  (19) 
7

>  <source_current_task>  (19) 
close_aromatic_ring

>  <rotatable_bond_torsions>  (19) 
1,0,2,3;0,2,3,4

>  <scenario>  (19) 
0 0

>  <reason_to_skip>  (19) 
some_atom_counter_exceeded

$$$$

     RDKit          3D

  6  5  0  0  0  0  0  0  0  0999 V2000
  -27.8650   -7.7310  -31.7500 C   0  0  0  0  0  0  0  0  0  0  0  0
  -27.6820   -7.0250  -32.9020 N   0  0  0  0  0  0  0  0  0  0  0  0
  -27.6230   -9.1120  -31.7550 N   0  0  0  0  0  0  0  0  0  0  0  0
  -28.7540   -9.8600  -31.5320 C   0  0  0  0  0  0  0  0  0  0  0  0
  -29.8265   -8.9613  -31.3539 C   0  0  0  0  0  0  0  0  0  0  0  0
    0.0000    0.0000    0.0000 S   0  0  0  0  0  0  0  0  0  0  0  0
  1  2  2  0
  1  3  1  0
  3  4  1  0
  4  5  2  3
  5  6  1  0
M  END
>  <name>  (20) 
Car Nac Nd0 Car Car Sul

>  <indices>  (20) 
[0, 1, 2]

>  <dummy>  (20) 
1

>  <tasks>  (20) 
probe_placing close_aromatic_ring close_aromatic_ring

>  <current_task>  (20) 
close_aromatic_ring

>  <prot_clashes>  (20) 
7

>  <NBS phar>  (20) 
0.22000000000000003

>  <NBS_non-phar>  (20) 
0.7484323978424072

>  <NBS>  (20) 
0.9684323978424072

>  <source_stage>  (20) 
scored

>  <source_iter>  (20) 
2

>  <source_parent_mol>  (20) 
0

>  <source_scenario>  (20) 
0 0

>  <source_rank_in_scored_call>  (20) 
7

>  <source_current_task>  (20) 
close_aromatic_ring

>  <rotatable_bond_torsions>  (20) 
1,0,2,3;0,2,3,4

>  <scenario>  (20) 
0 0

>  <reason_to_skip>  (20) 
some_atom_counter_exceeded

$$$$

     RDKit          3D

  6  5  0  0  0  0  0  0  0  0999 V2000
  -27.8650   -7.7310  -31.7500 C   0  0  0  0  0  0  0  0  0  0  0  0
  -27.6820   -7.0250  -32.9020 N   0  0  0  0  0  0  0  0  0  0  0  0
  -27.6230   -9.1120  -31.7550 N   0  0  0  0  0  0  0  0  0  0  0  0
  -28.7540   -9.8600  -31.5320 C   0  0  0  0  0  0  0  0  0  0  0  0
  -29.8265   -8.9613  -31.3539 C   0  0  0  0  0  0  0  0  0  0  0  0
    0.0000    0.0000    0.0000 S   0  0  0  0  0  0  0  0  0  0  0  0
  1  2  2  0
  1  3  1  0
  3  4  1  0
  4  5  2  3
  5  6  1  0
M  END
>  <name>  (21) 
Car Nac Nd0 Car Car Sul

>  <indices>  (21) 
[0, 1, 2]

>  <dummy>  (21) 
1

>  <tasks>  (21) 
probe_placing close_aromatic_ring close_aromatic_ring

>  <current_task>  (21) 
close_aromatic_ring

>  <prot_clashes>  (21) 
7

>  <NBS phar>  (21) 
0.22000000000000003

>  <NBS_non-phar>  (21) 
0.7484323978424072

>  <NBS>  (21) 
0.9684323978424072

>  <source_stage>  (21) 
scored

>  <source_iter>  (21) 
2

>  <source_parent_mol>  (21) 
0

>  <source_scenario>  (21) 
0 0

>  <source_rank_in_scored_call>  (21) 
7

>  <source_current_task>  (21) 
close_aromatic_ring

>  <rotatable_bond_torsions>  (21) 
1,0,2,3;0,2,3,4

>  <scenario>  (21) 
0 0

>  <reason_to_skip>  (21) 
some_atom_counter_exceeded

$$$$

     RDKit          3D

  6  5  0  0  0  0  0  0  0  0999 V2000
  -27.8650   -7.7310  -31.7500 C   0  0  0  0  0  0  0  0  0  0  0  0
  -27.6820   -7.0250  -32.9020 N   0  0  0  0  0  0  0  0  0  0  0  0
  -27.6230   -9.1120  -31.7550 N   0  0  0  0  0  0  0  0  0  0  0  0
  -28.7540   -9.8600  -31.5320 C   0  0  0  0  0  0  0  0  0  0  0  0
  -29.8265   -8.9613  -31.3539 C   0  0  0  0  0  0  0  0  0  0  0  0
    0.0000    0.0000    0.0000 S   0  0  0  0  0  0  0  0  0  0  0  0
  1  2  2  0
  1  3  1  0
  3  4  1  0
  4  5  2  3
  5  6  1  0
M  END
>  <name>  (22) 
Car Nac Nd0 Car Car Sul

>  <indices>  (22) 
[0, 1, 2]

>  <dummy>  (22) 
1

>  <tasks>  (22) 
probe_placing close_aromatic_ring close_aromatic_ring

>  <current_task>  (22) 
close_aromatic_ring

>  <prot_clashes>  (22) 
7

>  <NBS phar>  (22) 
0.22000000000000003

>  <NBS_non-phar>  (22) 
0.7484323978424072

>  <NBS>  (22) 
0.9684323978424072

>  <source_stage>  (22) 
scored

>  <source_iter>  (22) 
2

>  <source_parent_mol>  (22) 
0

>  <source_scenario>  (22) 
0 0

>  <source_rank_in_scored_call>  (22) 
7

>  <source_current_task>  (22) 
close_aromatic_ring

>  <rotatable_bond_torsions>  (22) 
1,0,2,3;0,2,3,4

>  <scenario>  (22) 
0 0

>  <reason_to_skip>  (22) 
some_atom_counter_exceeded

$$$$

     RDKit          3D

  6  5  0  0  0  0  0  0  0  0999 V2000
  -27.8650   -7.7310  -31.7500 C   0  0  0  0  0  0  0  0  0  0  0  0
  -27.6820   -7.0250  -32.9020 N   0  0  0  0  0  0  0  0  0  0  0  0
  -27.6230   -9.1120  -31.7550 N   0  0  0  0  0  0  0  0  0  0  0  0
  -28.7540   -9.8600  -31.5320 C   0  0  0  0  0  0  0  0  0  0  0  0
  -29.8265   -8.9613  -31.3539 C   0  0  0  0  0  0  0  0  0  0  0  0
    0.0000    0.0000    0.0000 O   0  0  0  0  0  0  0  0  0  0  0  0
  1  2  2  0
  1  3  1  0
  3  4  1  0
  4  5  2  3
  5  6  1  0
M  END
>  <name>  (23) 
Car Nac Nd0 Car Car O_a

>  <indices>  (23) 
[0, 1, 2]

>  <dummy>  (23) 
1

>  <tasks>  (23) 
probe_placing close_aromatic_ring close_aromatic_ring

>  <current_task>  (23) 
close_aromatic_ring

>  <prot_clashes>  (23) 
7

>  <NBS phar>  (23) 
0.22000000000000003

>  <NBS_non-phar>  (23) 
0.7484323978424072

>  <NBS>  (23) 
0.9684323978424072

>  <source_stage>  (23) 
scored

>  <source_iter>  (23) 
2

>  <source_parent_mol>  (23) 
0

>  <source_scenario>  (23) 
0 0

>  <source_rank_in_scored_call>  (23) 
7

>  <source_current_task>  (23) 
close_aromatic_ring

>  <rotatable_bond_torsions>  (23) 
1,0,2,3;0,2,3,4

>  <scenario>  (23) 
0 0

>  <reason_to_skip>  (23) 
some_atom_counter_exceeded

$$$$

     RDKit          3D

  6  5  0  0  0  0  0  0  0  0999 V2000
  -27.8650   -7.7310  -31.7500 C   0  0  0  0  0  0  0  0  0  0  0  0
  -27.6820   -7.0250  -32.9020 N   0  0  0  0  0  0  0  0  0  0  0  0
  -27.6230   -9.1120  -31.7550 N   0  0  0  0  0  0  0  0  0  0  0  0
  -28.7540   -9.8600  -31.5320 C   0  0  0  0  0  0  0  0  0  0  0  0
  -29.8265   -8.9613  -31.3539 C   0  0  0  0  0  0  0  0  0  0  0  0
    0.0000    0.0000    0.0000 S   0  0  0  0  0  0  0  0  0  0  0  0
  1  2  2  0
  1  3  1  0
  3  4  1  0
  4  5  2  3
  5  6  1  0
M  END
>  <name>  (24) 
Car Nac Nd0 Car Car Sul

>  <indices>  (24) 
[0, 1, 2]

>  <dummy>  (24) 
1

>  <tasks>  (24) 
probe_placing close_aromatic_ring close_aromatic_ring

>  <current_task>  (24) 
close_aromatic_ring

>  <prot_clashes>  (24) 
7

>  <NBS phar>  (24) 
0.22000000000000003

>  <NBS_non-phar>  (24) 
0.7484323978424072

>  <NBS>  (24) 
0.9684323978424072

>  <source_stage>  (24) 
scored

>  <source_iter>  (24) 
2

>  <source_parent_mol>  (24) 
0

>  <source_scenario>  (24) 
0 0

>  <source_rank_in_scored_call>  (24) 
7

>  <source_current_task>  (24) 
close_aromatic_ring

>  <rotatable_bond_torsions>  (24) 
1,0,2,3;0,2,3,4

>  <scenario>  (24) 
0 0

>  <reason_to_skip>  (24) 
some_atom_counter_exceeded

$$$$

     RDKit          3D

  6  5  0  0  0  0  0  0  0  0999 V2000
  -27.8650   -7.7310  -31.7500 C   0  0  0  0  0  0  0  0  0  0  0  0
  -27.6820   -7.0250  -32.9020 N   0  0  0  0  0  0  0  0  0  0  0  0
  -27.6230   -9.1120  -31.7550 N   0  0  0  0  0  0  0  0  0  0  0  0
  -28.7540   -9.8600  -31.5320 C   0  0  0  0  0  0  0  0  0  0  0  0
  -29.8265   -8.9613  -31.3539 C   0  0  0  0  0  0  0  0  0  0  0  0
    0.0000    0.0000    0.0000 S   0  0  0  0  0  0  0  0  0  0  0  0
  1  2  2  0
  1  3  1  0
  3  4  1  0
  4  5  2  3
  5  6  1  0
M  END
>  <name>  (25) 
Car Nac Nd0 Car Car Sul

>  <indices>  (25) 
[0, 1, 2]

>  <dummy>  (25) 
1

>  <tasks>  (25) 
probe_placing close_aromatic_ring close_aromatic_ring

>  <current_task>  (25) 
close_aromatic_ring

>  <prot_clashes>  (25) 
7

>  <NBS phar>  (25) 
0.22000000000000003

>  <NBS_non-phar>  (25) 
0.7484323978424072

>  <NBS>  (25) 
0.9684323978424072

>  <source_stage>  (25) 
scored

>  <source_iter>  (25) 
2

>  <source_parent_mol>  (25) 
0

>  <source_scenario>  (25) 
0 0

>  <source_rank_in_scored_call>  (25) 
7

>  <source_current_task>  (25) 
close_aromatic_ring

>  <rotatable_bond_torsions>  (25) 
1,0,2,3;0,2,3,4

>  <scenario>  (25) 
0 0

>  <reason_to_skip>  (25) 
some_atom_counter_exceeded

$$$$

     RDKit          3D

  6  5  0  0  0  0  0  0  0  0999 V2000
  -27.8650   -7.7310  -31.7500 C   0  0  0  0  0  0  0  0  0  0  0  0
  -27.6820   -7.0250  -32.9020 N   0  0  0  0  0  0  0  0  0  0  0  0
  -27.6230   -9.1120  -31.7550 N   0  0  0  0  0  0  0  0  0  0  0  0
  -28.7540   -9.8600  -31.5320 C   0  0  0  0  0  0  0  0  0  0  0  0
  -29.8265   -8.9613  -31.3539 C   0  0  0  0  0  0  0  0  0  0  0  0
  -30.6212   -9.0662  -30.1357 C   0  0  0  0  0  0  0  0  0  0  0  0
  1  2  2  0
  1  3  1  0
  3  4  1  0
  4  5  2  3
  5  6  1  0
M  END
>  <name>  (26) 
Car Nac Nd0 Car Car Car

>  <indices>  (26) 
[0, 1, 2]

>  <dummy>  (26) 
1

>  <tasks>  (26) 
probe_placing close_aromatic_ring close_aromatic_ring

>  <current_task>  (26) 
close_aromatic_ring

>  <prot_clashes>  (26) 
7

>  <NBS phar>  (26) 
0.22000000000000003

>  <NBS_non-phar>  (26) 
0.7484323978424072

>  <NBS>  (26) 
0.9684323978424072

>  <source_stage>  (26) 
scored

>  <source_iter>  (26) 
2

>  <source_parent_mol>  (26) 
0

>  <source_scenario>  (26) 
0 0

>  <source_rank_in_scored_call>  (26) 
7

>  <source_current_task>  (26) 
close_aromatic_ring

>  <rotatable_bond_torsions>  (26) 
1,0,2,3;0,2,3,4

>  <scenario>  (26) 
0 0

>  <reason_to_skip>  (26) 
incorrect arom ring closing

$$$$

     RDKit          3D

  6  5  0  0  0  0  0  0  0  0999 V2000
  -27.8650   -7.7310  -31.7500 C   0  0  0  0  0  0  0  0  0  0  0  0
  -27.6820   -7.0250  -32.9020 N   0  0  0  0  0  0  0  0  0  0  0  0
  -27.6230   -9.1120  -31.7550 N   0  0  0  0  0  0  0  0  0  0  0  0
  -28.7540   -9.8600  -31.5320 C   0  0  0  0  0  0  0  0  0  0  0  0
  -29.8265   -8.9613  -31.3539 C   0  0  0  0  0  0  0  0  0  0  0  0
  -30.3073   -8.6032  -29.8957 C   0  0  0  0  0  0  0  0  0  0  0  0
  1  2  2  0
  1  3  1  0
  3  4  1  0
  4  5  2  3
  5  6  1  0
M  END
>  <name>  (27) 
Car Nac Nd0 Car Car Car

>  <indices>  (27) 
[0, 1, 2]

>  <dummy>  (27) 
1

>  <tasks>  (27) 
probe_placing close_aromatic_ring close_aromatic_ring

>  <current_task>  (27) 
close_aromatic_ring

>  <prot_clashes>  (27) 
7

>  <NBS phar>  (27) 
0.22000000000000003

>  <NBS_non-phar>  (27) 
0.7484323978424072

>  <NBS>  (27) 
0.9684323978424072

>  <source_stage>  (27) 
scored

>  <source_iter>  (27) 
2

>  <source_parent_mol>  (27) 
0

>  <source_scenario>  (27) 
0 0

>  <source_rank_in_scored_call>  (27) 
7

>  <source_current_task>  (27) 
close_aromatic_ring

>  <rotatable_bond_torsions>  (27) 
1,0,2,3;0,2,3,4

>  <scenario>  (27) 
0 0

>  <reason_to_skip>  (27) 
incorrect arom ring closing

$$$$

     RDKit          3D

  6  5  0  0  0  0  0  0  0  0999 V2000
  -27.8650   -7.7310  -31.7500 C   0  0  0  0  0  0  0  0  0  0  0  0
  -27.6820   -7.0250  -32.9020 N   0  0  0  0  0  0  0  0  0  0  0  0
  -27.6230   -9.1120  -31.7550 N   0  0  0  0  0  0  0  0  0  0  0  0
  -28.7540   -9.8600  -31.5320 C   0  0  0  0  0  0  0  0  0  0  0  0
  -29.2727  -10.7316  -32.5578 C   0  0  0  0  0  0  0  0  0  0  0  0
  -30.4539  -11.6234  -32.3256 C   0  0  0  0  0  0  0  0  0  0  0  0
  1  2  2  0
  1  3  1  0
  3  4  1  0
  4  5  2  3
  5  6  1  0
M  END
>  <name>  (1) 
Car Nac Nd0 Car Car Car

>  <indices>  (1) 
[0, 1, 2]

>  <dummy>  (1) 
1

>  <tasks>  (1) 
probe_placing close_aromatic_ring close_aromatic_ring

>  <current_task>  (1) 
close_aromatic_ring

>  <prot_clashes>  (1) 
3

>  <NBS phar>  (1) 
0.22000000000000003

>  <NBS_non-phar>  (1) 
0.7330792903900146

>  <NBS>  (1) 
0.9530792903900147

>  <source_stage>  (1) 
scored

>  <source_iter>  (1) 
2

>  <source_parent_mol>  (1) 
0

>  <source_scenario>  (1) 
0 0

>  <source_rank_in_scored_call>  (1) 
9

>  <source_current_task>  (1) 
close_aromatic_ring

>  <rotatable_bond_torsions>  (1) 
1,0,2,3;0,2,3,4

>  <scenario>  (1) 
0 0

>  <reason_to_skip>  (1) 
incorrect arom ring closing

$$$$

     RDKit          3D

  6  5  0  0  0  0  0  0  0  0999 V2000
  -27.8650   -7.7310  -31.7500 C   0  0  0  0  0  0  0  0  0  0  0  0
  -27.6820   -7.0250  -32.9020 N   0  0  0  0  0  0  0  0  0  0  0  0
  -27.6230   -9.1120  -31.7550 N   0  0  0  0  0  0  0  0  0  0  0  0
  -28.7540   -9.8600  -31.5320 C   0  0  0  0  0  0  0  0  0  0  0  0
  -29.2727  -10.7316  -32.5578 C   0  0  0  0  0  0  0  0  0  0  0  0
  -30.3659  -11.3254  -31.9607 N   0  0  0  0  0  0  0  0  0  0  0  0
  1  2  2  0
  1  3  1  0
  3  4  1  0
  4  5  2  3
  5  6  1  0
M  END
>  <name>  (2) 
Car Nac Nd0 Car Car Nac

>  <indices>  (2) 
[0, 1, 2]

>  <dummy>  (2) 
1

>  <tasks>  (2) 
probe_placing close_aromatic_ring close_aromatic_ring

>  <current_task>  (2) 
close_aromatic_ring

>  <prot_clashes>  (2) 
3

>  <NBS phar>  (2) 
0.22000000000000003

>  <NBS_non-phar>  (2) 
0.7330792903900146

>  <NBS>  (2) 
0.9530792903900147

>  <source_stage>  (2) 
scored

>  <source_iter>  (2) 
2

>  <source_parent_mol>  (2) 
0

>  <source_scenario>  (2) 
0 0

>  <source_rank_in_scored_call>  (2) 
9

>  <source_current_task>  (2) 
close_aromatic_ring

>  <rotatable_bond_torsions>  (2) 
1,0,2,3;0,2,3,4

>  <scenario>  (2) 
0 0

>  <reason_to_skip>  (2) 
incorrect arom ring closing

$$$$

     RDKit          3D

  6  5  0  0  0  0  0  0  0  0999 V2000
  -27.8650   -7.7310  -31.7500 C   0  0  0  0  0  0  0  0  0  0  0  0
  -27.6820   -7.0250  -32.9020 N   0  0  0  0  0  0  0  0  0  0  0  0
  -27.6230   -9.1120  -31.7550 N   0  0  0  0  0  0  0  0  0  0  0  0
  -28.7540   -9.8600  -31.5320 C   0  0  0  0  0  0  0  0  0  0  0  0
  -29.2727  -10.7316  -32.5578 C   0  0  0  0  0  0  0  0  0  0  0  0
  -30.4277  -11.4568  -32.2855 C   0  0  0  0  0  0  0  0  0  0  0  0
  1  2  2  0
  1  3  1  0
  3  4  1  0
  4  5  2  3
  5  6  1  0
M  END
>  <name>  (3) 
Car Nac Nd0 Car Car Car

>  <indices>  (3) 
[0, 1, 2]

>  <dummy>  (3) 
1

>  <tasks>  (3) 
probe_placing close_aromatic_ring close_aromatic_ring

>  <current_task>  (3) 
close_aromatic_ring

>  <prot_clashes>  (3) 
3

>  <NBS phar>  (3) 
0.22000000000000003

>  <NBS_non-phar>  (3) 
0.7330792903900146

>  <NBS>  (3) 
0.9530792903900147

>  <source_stage>  (3) 
scored

>  <source_iter>  (3) 
2

>  <source_parent_mol>  (3) 
0

>  <source_scenario>  (3) 
0 0

>  <source_rank_in_scored_call>  (3) 
9

>  <source_current_task>  (3) 
close_aromatic_ring

>  <rotatable_bond_torsions>  (3) 
1,0,2,3;0,2,3,4

>  <scenario>  (3) 
0 0

>  <reason_to_skip>  (3) 
incorrect arom ring closing

$$$$

     RDKit          3D

  6  5  0  0  0  0  0  0  0  0999 V2000
  -27.8650   -7.7310  -31.7500 C   0  0  0  0  0  0  0  0  0  0  0  0
  -27.6820   -7.0250  -32.9020 N   0  0  0  0  0  0  0  0  0  0  0  0
  -27.6230   -9.1120  -31.7550 N   0  0  0  0  0  0  0  0  0  0  0  0
  -28.7540   -9.8600  -31.5320 C   0  0  0  0  0  0  0  0  0  0  0  0
  -29.2727  -10.7316  -32.5578 C   0  0  0  0  0  0  0  0  0  0  0  0
  -28.3155  -10.4739  -33.5820 N   0  0  0  0  0  0  0  0  0  0  0  0
  1  2  2  0
  1  3  1  0
  3  4  1  0
  4  5  2  3
  5  6  1  0
M  END
>  <name>  (4) 
Car Nac Nd0 Car Car Nac

>  <indices>  (4) 
[0, 1, 2]

>  <dummy>  (4) 
1

>  <tasks>  (4) 
probe_placing close_aromatic_ring close_aromatic_ring

>  <current_task>  (4) 
close_aromatic_ring

>  <prot_clashes>  (4) 
3

>  <NBS phar>  (4) 
0.22000000000000003

>  <NBS_non-phar>  (4) 
0.7330792903900146

>  <NBS>  (4) 
0.9530792903900147

>  <source_stage>  (4) 
scored

>  <source_iter>  (4) 
2

>  <source_parent_mol>  (4) 
0

>  <source_scenario>  (4) 
0 0

>  <source_rank_in_scored_call>  (4) 
9

>  <source_current_task>  (4) 
close_aromatic_ring

>  <rotatable_bond_torsions>  (4) 
1,0,2,3;0,2,3,4

>  <scenario>  (4) 
0 0

>  <reason_to_skip>  (4) 
bad angles

$$$$

     RDKit          3D

  6  5  0  0  0  0  0  0  0  0999 V2000
  -27.8650   -7.7310  -31.7500 C   0  0  0  0  0  0  0  0  0  0  0  0
  -27.6820   -7.0250  -32.9020 N   0  0  0  0  0  0  0  0  0  0  0  0
  -27.6230   -9.1120  -31.7550 N   0  0  0  0  0  0  0  0  0  0  0  0
  -28.7540   -9.8600  -31.5320 C   0  0  0  0  0  0  0  0  0  0  0  0
  -29.2727  -10.7316  -32.5578 C   0  0  0  0  0  0  0  0  0  0  0  0
  -28.2832  -10.4845  -33.5780 C   0  0  0  0  0  0  0  0  0  0  0  0
  1  2  2  0
  1  3  1  0
  3  4  1  0
  4  5  2  3
  5  6  1  0
M  END
>  <name>  (5) 
Car Nac Nd0 Car Car Car

>  <indices>  (5) 
[0, 1, 2]

>  <dummy>  (5) 
1

>  <tasks>  (5) 
probe_placing close_aromatic_ring close_aromatic_ring

>  <current_task>  (5) 
close_aromatic_ring

>  <prot_clashes>  (5) 
3

>  <NBS phar>  (5) 
0.22000000000000003

>  <NBS_non-phar>  (5) 
0.7330792903900146

>  <NBS>  (5) 
0.9530792903900147

>  <source_stage>  (5) 
scored

>  <source_iter>  (5) 
2

>  <source_parent_mol>  (5) 
0

>  <source_scenario>  (5) 
0 0

>  <source_rank_in_scored_call>  (5) 
9

>  <source_current_task>  (5) 
close_aromatic_ring

>  <rotatable_bond_torsions>  (5) 
1,0,2,3;0,2,3,4

>  <scenario>  (5) 
0 0

>  <reason_to_skip>  (5) 
bad angles

$$$$

     RDKit          3D

  6  5  0  0  0  0  0  0  0  0999 V2000
  -27.8650   -7.7310  -31.7500 C   0  0  0  0  0  0  0  0  0  0  0  0
  -27.6820   -7.0250  -32.9020 N   0  0  0  0  0  0  0  0  0  0  0  0
  -27.6230   -9.1120  -31.7550 N   0  0  0  0  0  0  0  0  0  0  0  0
  -28.7540   -9.8600  -31.5320 C   0  0  0  0  0  0  0  0  0  0  0  0
  -29.2727  -10.7316  -32.5578 C   0  0  0  0  0  0  0  0  0  0  0  0
    0.0000    0.0000    0.0000 O   0  0  0  0  0  0  0  0  0  0  0  0
  1  2  2  0
  1  3  1  0
  3  4  1  0
  4  5  2  3
  5  6  1  0
M  END
>  <name>  (6) 
Car Nac Nd0 Car Car O_a

>  <indices>  (6) 
[0, 1, 2]

>  <dummy>  (6) 
1

>  <tasks>  (6) 
probe_placing close_aromatic_ring close_aromatic_ring

>  <current_task>  (6) 
close_aromatic_ring

>  <prot_clashes>  (6) 
3

>  <NBS phar>  (6) 
0.22000000000000003

>  <NBS_non-phar>  (6) 
0.7330792903900146

>  <NBS>  (6) 
0.9530792903900147

>  <source_stage>  (6) 
scored

>  <source_iter>  (6) 
2

>  <source_parent_mol>  (6) 
0

>  <source_scenario>  (6) 
0 0

>  <source_rank_in_scored_call>  (6) 
9

>  <source_current_task>  (6) 
close_aromatic_ring

>  <rotatable_bond_torsions>  (6) 
1,0,2,3;0,2,3,4

>  <scenario>  (6) 
0 0

>  <reason_to_skip>  (6) 
some_atom_counter_exceeded

$$$$

     RDKit          3D

  6  5  0  0  0  0  0  0  0  0999 V2000
  -27.8650   -7.7310  -31.7500 C   0  0  0  0  0  0  0  0  0  0  0  0
  -27.6820   -7.0250  -32.9020 N   0  0  0  0  0  0  0  0  0  0  0  0
  -27.6230   -9.1120  -31.7550 N   0  0  0  0  0  0  0  0  0  0  0  0
  -28.7540   -9.8600  -31.5320 C   0  0  0  0  0  0  0  0  0  0  0  0
  -29.2727  -10.7316  -32.5578 C   0  0  0  0  0  0  0  0  0  0  0  0
  -30.3003  -11.5578  -32.6698 N   0  0  0  0  0  0  0  0  0  0  0  0
  1  2  2  0
  1  3  1  0
  3  4  1  0
  4  5  2  3
  5  6  1  0
M  END
>  <name>  (7) 
Car Nac Nd0 Car Car Nd0

>  <indices>  (7) 
[0, 1, 2]

>  <dummy>  (7) 
1

>  <tasks>  (7) 
probe_placing close_aromatic_ring close_aromatic_ring

>  <current_task>  (7) 
close_aromatic_ring

>  <prot_clashes>  (7) 
3

>  <NBS phar>  (7) 
0.22000000000000003

>  <NBS_non-phar>  (7) 
0.7330792903900146

>  <NBS>  (7) 
0.9530792903900147

>  <source_stage>  (7) 
scored

>  <source_iter>  (7) 
2

>  <source_parent_mol>  (7) 
0

>  <source_scenario>  (7) 
0 0

>  <source_rank_in_scored_call>  (7) 
9

>  <source_current_task>  (7) 
close_aromatic_ring

>  <rotatable_bond_torsions>  (7) 
1,0,2,3;0,2,3,4

>  <scenario>  (7) 
0 0

>  <reason_to_skip>  (7) 
bad angles

$$$$

     RDKit          3D

  6  5  0  0  0  0  0  0  0  0999 V2000
  -27.8650   -7.7310  -31.7500 C   0  0  0  0  0  0  0  0  0  0  0  0
  -27.6820   -7.0250  -32.9020 N   0  0  0  0  0  0  0  0  0  0  0  0
  -27.6230   -9.1120  -31.7550 N   0  0  0  0  0  0  0  0  0  0  0  0
  -28.7540   -9.8600  -31.5320 C   0  0  0  0  0  0  0  0  0  0  0  0
  -29.2727  -10.7316  -32.5578 C   0  0  0  0  0  0  0  0  0  0  0  0
  -30.3852  -11.4790  -32.3286 N   0  0  0  0  0  0  0  0  0  0  0  0
  1  2  2  0
  1  3  1  0
  3  4  1  0
  4  5  2  3
  5  6  1  0
M  END
>  <name>  (8) 
Car Nac Nd0 Car Car Nac

>  <indices>  (8) 
[0, 1, 2]

>  <dummy>  (8) 
1

>  <tasks>  (8) 
probe_placing close_aromatic_ring close_aromatic_ring

>  <current_task>  (8) 
close_aromatic_ring

>  <prot_clashes>  (8) 
3

>  <NBS phar>  (8) 
0.22000000000000003

>  <NBS_non-phar>  (8) 
0.7330792903900146

>  <NBS>  (8) 
0.9530792903900147

>  <source_stage>  (8) 
scored

>  <source_iter>  (8) 
2

>  <source_parent_mol>  (8) 
0

>  <source_scenario>  (8) 
0 0

>  <source_rank_in_scored_call>  (8) 
9

>  <source_current_task>  (8) 
close_aromatic_ring

>  <rotatable_bond_torsions>  (8) 
1,0,2,3;0,2,3,4

>  <scenario>  (8) 
0 0

>  <reason_to_skip>  (8) 
incorrect arom ring closing

$$$$

     RDKit          3D

  6  5  0  0  0  0  0  0  0  0999 V2000
  -27.8650   -7.7310  -31.7500 C   0  0  0  0  0  0  0  0  0  0  0  0
  -27.6820   -7.0250  -32.9020 N   0  0  0  0  0  0  0  0  0  0  0  0
  -27.6230   -9.1120  -31.7550 N   0  0  0  0  0  0  0  0  0  0  0  0
  -28.7540   -9.8600  -31.5320 C   0  0  0  0  0  0  0  0  0  0  0  0
  -29.2727  -10.7316  -32.5578 C   0  0  0  0  0  0  0  0  0  0  0  0
    0.0000    0.0000    0.0000 O   0  0  0  0  0  0  0  0  0  0  0  0
  1  2  2  0
  1  3  1  0
  3  4  1  0
  4  5  2  3
  5  6  1  0
M  END
>  <name>  (9) 
Car Nac Nd0 Car Car O_a

>  <indices>  (9) 
[0, 1, 2]

>  <dummy>  (9) 
1

>  <tasks>  (9) 
probe_placing close_aromatic_ring close_aromatic_ring

>  <current_task>  (9) 
close_aromatic_ring

>  <prot_clashes>  (9) 
3

>  <NBS phar>  (9) 
0.22000000000000003

>  <NBS_non-phar>  (9) 
0.7330792903900146

>  <NBS>  (9) 
0.9530792903900147

>  <source_stage>  (9) 
scored

>  <source_iter>  (9) 
2

>  <source_parent_mol>  (9) 
0

>  <source_scenario>  (9) 
0 0

>  <source_rank_in_scored_call>  (9) 
9

>  <source_current_task>  (9) 
close_aromatic_ring

>  <rotatable_bond_torsions>  (9) 
1,0,2,3;0,2,3,4

>  <scenario>  (9) 
0 0

>  <reason_to_skip>  (9) 
some_atom_counter_exceeded

$$$$

     RDKit          3D

  6  5  0  0  0  0  0  0  0  0999 V2000
  -27.8650   -7.7310  -31.7500 C   0  0  0  0  0  0  0  0  0  0  0  0
  -27.6820   -7.0250  -32.9020 N   0  0  0  0  0  0  0  0  0  0  0  0
  -27.6230   -9.1120  -31.7550 N   0  0  0  0  0  0  0  0  0  0  0  0
  -28.7540   -9.8600  -31.5320 C   0  0  0  0  0  0  0  0  0  0  0  0
  -29.2727  -10.7316  -32.5578 C   0  0  0  0  0  0  0  0  0  0  0  0
  -28.8406  -12.0530  -32.3714 C   0  0  0  0  0  0  0  0  0  0  0  0
  1  2  2  0
  1  3  1  0
  3  4  1  0
  4  5  2  3
  5  6  1  0
M  END
>  <name>  (10) 
Car Nac Nd0 Car Car Car

>  <indices>  (10) 
[0, 1, 2]

>  <dummy>  (10) 
1

>  <tasks>  (10) 
probe_placing close_aromatic_ring close_aromatic_ring

>  <current_task>  (10) 
close_aromatic_ring

>  <prot_clashes>  (10) 
3

>  <NBS phar>  (10) 
0.22000000000000003

>  <NBS_non-phar>  (10) 
0.7330792903900146

>  <NBS>  (10) 
0.9530792903900147

>  <source_stage>  (10) 
scored

>  <source_iter>  (10) 
2

>  <source_parent_mol>  (10) 
0

>  <source_scenario>  (10) 
0 0

>  <source_rank_in_scored_call>  (10) 
9

>  <source_current_task>  (10) 
close_aromatic_ring

>  <rotatable_bond_torsions>  (10) 
1,0,2,3;0,2,3,4

>  <scenario>  (10) 
0 0

>  <reason_to_skip>  (10) 
incorrect arom ring closing

$$$$

     RDKit          3D

  6  5  0  0  0  0  0  0  0  0999 V2000
  -27.8650   -7.7310  -31.7500 C   0  0  0  0  0  0  0  0  0  0  0  0
  -27.6820   -7.0250  -32.9020 N   0  0  0  0  0  0  0  0  0  0  0  0
  -27.6230   -9.1120  -31.7550 N   0  0  0  0  0  0  0  0  0  0  0  0
  -28.7540   -9.8600  -31.5320 C   0  0  0  0  0  0  0  0  0  0  0  0
  -29.2727  -10.7316  -32.5578 C   0  0  0  0  0  0  0  0  0  0  0  0
  -28.6007  -10.7991  -33.7202 N   0  0  0  0  0  0  0  0  0  0  0  0
  1  2  2  0
  1  3  1  0
  3  4  1  0
  4  5  2  3
  5  6  1  0
M  END
>  <name>  (11) 
Car Nac Nd0 Car Car Nd0

>  <indices>  (11) 
[0, 1, 2]

>  <dummy>  (11) 
1

>  <tasks>  (11) 
probe_placing close_aromatic_ring close_aromatic_ring

>  <current_task>  (11) 
close_aromatic_ring

>  <prot_clashes>  (11) 
3

>  <NBS phar>  (11) 
0.22000000000000003

>  <NBS_non-phar>  (11) 
0.7330792903900146

>  <NBS>  (11) 
0.9530792903900147

>  <source_stage>  (11) 
scored

>  <source_iter>  (11) 
2

>  <source_parent_mol>  (11) 
0

>  <source_scenario>  (11) 
0 0

>  <source_rank_in_scored_call>  (11) 
9

>  <source_current_task>  (11) 
close_aromatic_ring

>  <rotatable_bond_torsions>  (11) 
1,0,2,3;0,2,3,4

>  <scenario>  (11) 
0 0

>  <reason_to_skip>  (11) 
intramol repulsion

$$$$

     RDKit          3D

  6  5  0  0  0  0  0  0  0  0999 V2000
  -27.8650   -7.7310  -31.7500 C   0  0  0  0  0  0  0  0  0  0  0  0
  -27.6820   -7.0250  -32.9020 N   0  0  0  0  0  0  0  0  0  0  0  0
  -27.6230   -9.1120  -31.7550 N   0  0  0  0  0  0  0  0  0  0  0  0
  -28.7540   -9.8600  -31.5320 C   0  0  0  0  0  0  0  0  0  0  0  0
  -29.2727  -10.7316  -32.5578 C   0  0  0  0  0  0  0  0  0  0  0  0
  -30.3312  -11.4350  -32.3073 N   0  0  0  0  0  0  0  0  0  0  0  0
  1  2  2  0
  1  3  1  0
  3  4  1  0
  4  5  2  3
  5  6  1  0
M  END
>  <name>  (12) 
Car Nac Nd0 Car Car Nd0

>  <indices>  (12) 
[0, 1, 2]

>  <dummy>  (12) 
1

>  <tasks>  (12) 
probe_placing close_aromatic_ring close_aromatic_ring

>  <current_task>  (12) 
close_aromatic_ring

>  <prot_clashes>  (12) 
3

>  <NBS phar>  (12) 
0.22000000000000003

>  <NBS_non-phar>  (12) 
0.7330792903900146

>  <NBS>  (12) 
0.9530792903900147

>  <source_stage>  (12) 
scored

>  <source_iter>  (12) 
2

>  <source_parent_mol>  (12) 
0

>  <source_scenario>  (12) 
0 0

>  <source_rank_in_scored_call>  (12) 
9

>  <source_current_task>  (12) 
close_aromatic_ring

>  <rotatable_bond_torsions>  (12) 
1,0,2,3;0,2,3,4

>  <scenario>  (12) 
0 0

>  <reason_to_skip>  (12) 
incorrect arom ring closing

$$$$

     RDKit          3D

  6  5  0  0  0  0  0  0  0  0999 V2000
  -27.8650   -7.7310  -31.7500 C   0  0  0  0  0  0  0  0  0  0  0  0
  -27.6820   -7.0250  -32.9020 N   0  0  0  0  0  0  0  0  0  0  0  0
  -27.6230   -9.1120  -31.7550 N   0  0  0  0  0  0  0  0  0  0  0  0
  -28.7540   -9.8600  -31.5320 C   0  0  0  0  0  0  0  0  0  0  0  0
  -29.2727  -10.7316  -32.5578 C   0  0  0  0  0  0  0  0  0  0  0  0
    0.0000    0.0000    0.0000 S   0  0  0  0  0  0  0  0  0  0  0  0
  1  2  2  0
  1  3  1  0
  3  4  1  0
  4  5  2  3
  5  6  1  0
M  END
>  <name>  (13) 
Car Nac Nd0 Car Car Sul

>  <indices>  (13) 
[0, 1, 2]

>  <dummy>  (13) 
1

>  <tasks>  (13) 
probe_placing close_aromatic_ring close_aromatic_ring

>  <current_task>  (13) 
close_aromatic_ring

>  <prot_clashes>  (13) 
3

>  <NBS phar>  (13) 
0.22000000000000003

>  <NBS_non-phar>  (13) 
0.7330792903900146

>  <NBS>  (13) 
0.9530792903900147

>  <source_stage>  (13) 
scored

>  <source_iter>  (13) 
2

>  <source_parent_mol>  (13) 
0

>  <source_scenario>  (13) 
0 0

>  <source_rank_in_scored_call>  (13) 
9

>  <source_current_task>  (13) 
close_aromatic_ring

>  <rotatable_bond_torsions>  (13) 
1,0,2,3;0,2,3,4

>  <scenario>  (13) 
0 0

>  <reason_to_skip>  (13) 
some_atom_counter_exceeded

$$$$

     RDKit          3D

  6  5  0  0  0  0  0  0  0  0999 V2000
  -27.8650   -7.7310  -31.7500 C   0  0  0  0  0  0  0  0  0  0  0  0
  -27.6820   -7.0250  -32.9020 N   0  0  0  0  0  0  0  0  0  0  0  0
  -27.6230   -9.1120  -31.7550 N   0  0  0  0  0  0  0  0  0  0  0  0
  -28.7540   -9.8600  -31.5320 C   0  0  0  0  0  0  0  0  0  0  0  0
  -29.2727  -10.7316  -32.5578 C   0  0  0  0  0  0  0  0  0  0  0  0
  -29.1462  -12.1531  -32.4949 C   0  0  0  0  0  0  0  0  0  0  0  0
  1  2  2  0
  1  3  1  0
  3  4  1  0
  4  5  2  3
  5  6  1  0
M  END
>  <name>  (14) 
Car Nac Nd0 Car Car Car

>  <indices>  (14) 
[0, 1, 2]

>  <dummy>  (14) 
1

>  <tasks>  (14) 
probe_placing close_aromatic_ring close_aromatic_ring

>  <current_task>  (14) 
close_aromatic_ring

>  <prot_clashes>  (14) 
3

>  <NBS phar>  (14) 
0.22000000000000003

>  <NBS_non-phar>  (14) 
0.7330792903900146

>  <NBS>  (14) 
0.9530792903900147

>  <source_stage>  (14) 
scored

>  <source_iter>  (14) 
2

>  <source_parent_mol>  (14) 
0

>  <source_scenario>  (14) 
0 0

>  <source_rank_in_scored_call>  (14) 
9

>  <source_current_task>  (14) 
close_aromatic_ring

>  <rotatable_bond_torsions>  (14) 
1,0,2,3;0,2,3,4

>  <scenario>  (14) 
0 0

>  <reason_to_skip>  (14) 
incorrect arom ring closing

$$$$

     RDKit          3D

  6  5  0  0  0  0  0  0  0  0999 V2000
  -27.8650   -7.7310  -31.7500 C   0  0  0  0  0  0  0  0  0  0  0  0
  -27.6820   -7.0250  -32.9020 N   0  0  0  0  0  0  0  0  0  0  0  0
  -27.6230   -9.1120  -31.7550 N   0  0  0  0  0  0  0  0  0  0  0  0
  -28.7540   -9.8600  -31.5320 C   0  0  0  0  0  0  0  0  0  0  0  0
  -29.2727  -10.7316  -32.5578 C   0  0  0  0  0  0  0  0  0  0  0  0
    0.0000    0.0000    0.0000 O   0  0  0  0  0  0  0  0  0  0  0  0
  1  2  2  0
  1  3  1  0
  3  4  1  0
  4  5  2  3
  5  6  1  0
M  END
>  <name>  (15) 
Car Nac Nd0 Car Car O_a

>  <indices>  (15) 
[0, 1, 2]

>  <dummy>  (15) 
1

>  <tasks>  (15) 
probe_placing close_aromatic_ring close_aromatic_ring

>  <current_task>  (15) 
close_aromatic_ring

>  <prot_clashes>  (15) 
3

>  <NBS phar>  (15) 
0.22000000000000003

>  <NBS_non-phar>  (15) 
0.7330792903900146

>  <NBS>  (15) 
0.9530792903900147

>  <source_stage>  (15) 
scored

>  <source_iter>  (15) 
2

>  <source_parent_mol>  (15) 
0

>  <source_scenario>  (15) 
0 0

>  <source_rank_in_scored_call>  (15) 
9

>  <source_current_task>  (15) 
close_aromatic_ring

>  <rotatable_bond_torsions>  (15) 
1,0,2,3;0,2,3,4

>  <scenario>  (15) 
0 0

>  <reason_to_skip>  (15) 
some_atom_counter_exceeded

$$$$

     RDKit          3D

  6  5  0  0  0  0  0  0  0  0999 V2000
  -27.8650   -7.7310  -31.7500 C   0  0  0  0  0  0  0  0  0  0  0  0
  -27.6820   -7.0250  -32.9020 N   0  0  0  0  0  0  0  0  0  0  0  0
  -27.6230   -9.1120  -31.7550 N   0  0  0  0  0  0  0  0  0  0  0  0
  -28.7540   -9.8600  -31.5320 C   0  0  0  0  0  0  0  0  0  0  0  0
  -29.2727  -10.7316  -32.5578 C   0  0  0  0  0  0  0  0  0  0  0  0
    0.0000    0.0000    0.0000 S   0  0  0  0  0  0  0  0  0  0  0  0
  1  2  2  0
  1  3  1  0
  3  4  1  0
  4  5  2  3
  5  6  1  0
M  END
>  <name>  (16) 
Car Nac Nd0 Car Car Sul

>  <indices>  (16) 
[0, 1, 2]

>  <dummy>  (16) 
1

>  <tasks>  (16) 
probe_placing close_aromatic_ring close_aromatic_ring

>  <current_task>  (16) 
close_aromatic_ring

>  <prot_clashes>  (16) 
3

>  <NBS phar>  (16) 
0.22000000000000003

>  <NBS_non-phar>  (16) 
0.7330792903900146

>  <NBS>  (16) 
0.9530792903900147

>  <source_stage>  (16) 
scored

>  <source_iter>  (16) 
2

>  <source_parent_mol>  (16) 
0

>  <source_scenario>  (16) 
0 0

>  <source_rank_in_scored_call>  (16) 
9

>  <source_current_task>  (16) 
close_aromatic_ring

>  <rotatable_bond_torsions>  (16) 
1,0,2,3;0,2,3,4

>  <scenario>  (16) 
0 0

>  <reason_to_skip>  (16) 
some_atom_counter_exceeded

$$$$

     RDKit          3D

  6  5  0  0  0  0  0  0  0  0999 V2000
  -27.8650   -7.7310  -31.7500 C   0  0  0  0  0  0  0  0  0  0  0  0
  -27.6820   -7.0250  -32.9020 N   0  0  0  0  0  0  0  0  0  0  0  0
  -27.6230   -9.1120  -31.7550 N   0  0  0  0  0  0  0  0  0  0  0  0
  -28.7540   -9.8600  -31.5320 C   0  0  0  0  0  0  0  0  0  0  0  0
  -29.2727  -10.7316  -32.5578 C   0  0  0  0  0  0  0  0  0  0  0  0
    0.0000    0.0000    0.0000 S   0  0  0  0  0  0  0  0  0  0  0  0
  1  2  2  0
  1  3  1  0
  3  4  1  0
  4  5  2  3
  5  6  1  0
M  END
>  <name>  (17) 
Car Nac Nd0 Car Car Sul

>  <indices>  (17) 
[0, 1, 2]

>  <dummy>  (17) 
1

>  <tasks>  (17) 
probe_placing close_aromatic_ring close_aromatic_ring

>  <current_task>  (17) 
close_aromatic_ring

>  <prot_clashes>  (17) 
3

>  <NBS phar>  (17) 
0.22000000000000003

>  <NBS_non-phar>  (17) 
0.7330792903900146

>  <NBS>  (17) 
0.9530792903900147

>  <source_stage>  (17) 
scored

>  <source_iter>  (17) 
2

>  <source_parent_mol>  (17) 
0

>  <source_scenario>  (17) 
0 0

>  <source_rank_in_scored_call>  (17) 
9

>  <source_current_task>  (17) 
close_aromatic_ring

>  <rotatable_bond_torsions>  (17) 
1,0,2,3;0,2,3,4

>  <scenario>  (17) 
0 0

>  <reason_to_skip>  (17) 
some_atom_counter_exceeded

$$$$

     RDKit          3D

  6  5  0  0  0  0  0  0  0  0999 V2000
  -27.8650   -7.7310  -31.7500 C   0  0  0  0  0  0  0  0  0  0  0  0
  -27.6820   -7.0250  -32.9020 N   0  0  0  0  0  0  0  0  0  0  0  0
  -27.6230   -9.1120  -31.7550 N   0  0  0  0  0  0  0  0  0  0  0  0
  -28.7540   -9.8600  -31.5320 C   0  0  0  0  0  0  0  0  0  0  0  0
  -29.2727  -10.7316  -32.5578 C   0  0  0  0  0  0  0  0  0  0  0  0
    0.0000    0.0000    0.0000 S   0  0  0  0  0  0  0  0  0  0  0  0
  1  2  2  0
  1  3  1  0
  3  4  1  0
  4  5  2  3
  5  6  1  0
M  END
>  <name>  (18) 
Car Nac Nd0 Car Car Sul

>  <indices>  (18) 
[0, 1, 2]

>  <dummy>  (18) 
1

>  <tasks>  (18) 
probe_placing close_aromatic_ring close_aromatic_ring

>  <current_task>  (18) 
close_aromatic_ring

>  <prot_clashes>  (18) 
3

>  <NBS phar>  (18) 
0.22000000000000003

>  <NBS_non-phar>  (18) 
0.7330792903900146

>  <NBS>  (18) 
0.9530792903900147

>  <source_stage>  (18) 
scored

>  <source_iter>  (18) 
2

>  <source_parent_mol>  (18) 
0

>  <source_scenario>  (18) 
0 0

>  <source_rank_in_scored_call>  (18) 
9

>  <source_current_task>  (18) 
close_aromatic_ring

>  <rotatable_bond_torsions>  (18) 
1,0,2,3;0,2,3,4

>  <scenario>  (18) 
0 0

>  <reason_to_skip>  (18) 
some_atom_counter_exceeded

$$$$

     RDKit          3D

  6  5  0  0  0  0  0  0  0  0999 V2000
  -27.8650   -7.7310  -31.7500 C   0  0  0  0  0  0  0  0  0  0  0  0
  -27.6820   -7.0250  -32.9020 N   0  0  0  0  0  0  0  0  0  0  0  0
  -27.6230   -9.1120  -31.7550 N   0  0  0  0  0  0  0  0  0  0  0  0
  -28.7540   -9.8600  -31.5320 C   0  0  0  0  0  0  0  0  0  0  0  0
  -29.2727  -10.7316  -32.5578 C   0  0  0  0  0  0  0  0  0  0  0  0
    0.0000    0.0000    0.0000 O   0  0  0  0  0  0  0  0  0  0  0  0
  1  2  2  0
  1  3  1  0
  3  4  1  0
  4  5  2  3
  5  6  1  0
M  END
>  <name>  (19) 
Car Nac Nd0 Car Car O_a

>  <indices>  (19) 
[0, 1, 2]

>  <dummy>  (19) 
1

>  <tasks>  (19) 
probe_placing close_aromatic_ring close_aromatic_ring

>  <current_task>  (19) 
close_aromatic_ring

>  <prot_clashes>  (19) 
3

>  <NBS phar>  (19) 
0.22000000000000003

>  <NBS_non-phar>  (19) 
0.7330792903900146

>  <NBS>  (19) 
0.9530792903900147

>  <source_stage>  (19) 
scored

>  <source_iter>  (19) 
2

>  <source_parent_mol>  (19) 
0

>  <source_scenario>  (19) 
0 0

>  <source_rank_in_scored_call>  (19) 
9

>  <source_current_task>  (19) 
close_aromatic_ring

>  <rotatable_bond_torsions>  (19) 
1,0,2,3;0,2,3,4

>  <scenario>  (19) 
0 0

>  <reason_to_skip>  (19) 
some_atom_counter_exceeded

$$$$

     RDKit          3D

  6  5  0  0  0  0  0  0  0  0999 V2000
  -27.8650   -7.7310  -31.7500 C   0  0  0  0  0  0  0  0  0  0  0  0
  -27.6820   -7.0250  -32.9020 N   0  0  0  0  0  0  0  0  0  0  0  0
  -27.6230   -9.1120  -31.7550 N   0  0  0  0  0  0  0  0  0  0  0  0
  -28.7540   -9.8600  -31.5320 C   0  0  0  0  0  0  0  0  0  0  0  0
  -29.2727  -10.7316  -32.5578 C   0  0  0  0  0  0  0  0  0  0  0  0
    0.0000    0.0000    0.0000 S   0  0  0  0  0  0  0  0  0  0  0  0
  1  2  2  0
  1  3  1  0
  3  4  1  0
  4  5  2  3
  5  6  1  0
M  END
>  <name>  (20) 
Car Nac Nd0 Car Car Sul

>  <indices>  (20) 
[0, 1, 2]

>  <dummy>  (20) 
1

>  <tasks>  (20) 
probe_placing close_aromatic_ring close_aromatic_ring

>  <current_task>  (20) 
close_aromatic_ring

>  <prot_clashes>  (20) 
3

>  <NBS phar>  (20) 
0.22000000000000003

>  <NBS_non-phar>  (20) 
0.7330792903900146

>  <NBS>  (20) 
0.9530792903900147

>  <source_stage>  (20) 
scored

>  <source_iter>  (20) 
2

>  <source_parent_mol>  (20) 
0

>  <source_scenario>  (20) 
0 0

>  <source_rank_in_scored_call>  (20) 
9

>  <source_current_task>  (20) 
close_aromatic_ring

>  <rotatable_bond_torsions>  (20) 
1,0,2,3;0,2,3,4

>  <scenario>  (20) 
0 0

>  <reason_to_skip>  (20) 
some_atom_counter_exceeded

$$$$

     RDKit          3D

  6  5  0  0  0  0  0  0  0  0999 V2000
  -27.8650   -7.7310  -31.7500 C   0  0  0  0  0  0  0  0  0  0  0  0
  -27.6820   -7.0250  -32.9020 N   0  0  0  0  0  0  0  0  0  0  0  0
  -27.6230   -9.1120  -31.7550 N   0  0  0  0  0  0  0  0  0  0  0  0
  -28.7540   -9.8600  -31.5320 C   0  0  0  0  0  0  0  0  0  0  0  0
  -29.2727  -10.7316  -32.5578 C   0  0  0  0  0  0  0  0  0  0  0  0
    0.0000    0.0000    0.0000 S   0  0  0  0  0  0  0  0  0  0  0  0
  1  2  2  0
  1  3  1  0
  3  4  1  0
  4  5  2  3
  5  6  1  0
M  END
>  <name>  (21) 
Car Nac Nd0 Car Car Sul

>  <indices>  (21) 
[0, 1, 2]

>  <dummy>  (21) 
1

>  <tasks>  (21) 
probe_placing close_aromatic_ring close_aromatic_ring

>  <current_task>  (21) 
close_aromatic_ring

>  <prot_clashes>  (21) 
3

>  <NBS phar>  (21) 
0.22000000000000003

>  <NBS_non-phar>  (21) 
0.7330792903900146

>  <NBS>  (21) 
0.9530792903900147

>  <source_stage>  (21) 
scored

>  <source_iter>  (21) 
2

>  <source_parent_mol>  (21) 
0

>  <source_scenario>  (21) 
0 0

>  <source_rank_in_scored_call>  (21) 
9

>  <source_current_task>  (21) 
close_aromatic_ring

>  <rotatable_bond_torsions>  (21) 
1,0,2,3;0,2,3,4

>  <scenario>  (21) 
0 0

>  <reason_to_skip>  (21) 
some_atom_counter_exceeded

$$$$

     RDKit          3D

  6  5  0  0  0  0  0  0  0  0999 V2000
  -27.8650   -7.7310  -31.7500 C   0  0  0  0  0  0  0  0  0  0  0  0
  -27.6820   -7.0250  -32.9020 N   0  0  0  0  0  0  0  0  0  0  0  0
  -27.6230   -9.1120  -31.7550 N   0  0  0  0  0  0  0  0  0  0  0  0
  -28.7540   -9.8600  -31.5320 C   0  0  0  0  0  0  0  0  0  0  0  0
  -29.2727  -10.7316  -32.5578 C   0  0  0  0  0  0  0  0  0  0  0  0
  -30.5375  -10.5215  -33.0778 C   0  0  0  0  0  0  0  0  0  0  0  0
  1  2  2  0
  1  3  1  0
  3  4  1  0
  4  5  2  3
  5  6  1  0
M  END
>  <name>  (22) 
Car Nac Nd0 Car Car Car

>  <indices>  (22) 
[0, 1, 2]

>  <dummy>  (22) 
1

>  <tasks>  (22) 
probe_placing close_aromatic_ring close_aromatic_ring

>  <current_task>  (22) 
close_aromatic_ring

>  <prot_clashes>  (22) 
3

>  <NBS phar>  (22) 
0.22000000000000003

>  <NBS_non-phar>  (22) 
0.7330792903900146

>  <NBS>  (22) 
0.9530792903900147

>  <source_stage>  (22) 
scored

>  <source_iter>  (22) 
2

>  <source_parent_mol>  (22) 
0

>  <source_scenario>  (22) 
0 0

>  <source_rank_in_scored_call>  (22) 
9

>  <source_current_task>  (22) 
close_aromatic_ring

>  <rotatable_bond_torsions>  (22) 
1,0,2,3;0,2,3,4

>  <scenario>  (22) 
0 0

>  <reason_to_skip>  (22) 
incorrect arom ring closing

$$$$

     RDKit          3D

  6  5  0  0  0  0  0  0  0  0999 V2000
  -27.8650   -7.7310  -31.7500 C   0  0  0  0  0  0  0  0  0  0  0  0
  -27.6820   -7.0250  -32.9020 N   0  0  0  0  0  0  0  0  0  0  0  0
  -27.6230   -9.1120  -31.7550 N   0  0  0  0  0  0  0  0  0  0  0  0
  -28.7540   -9.8600  -31.5320 C   0  0  0  0  0  0  0  0  0  0  0  0
  -29.2727  -10.7316  -32.5578 C   0  0  0  0  0  0  0  0  0  0  0  0
  -30.3257  -10.1662  -33.5224 C   0  0  0  0  0  0  0  0  0  0  0  0
  1  2  2  0
  1  3  1  0
  3  4  1  0
  4  5  2  3
  5  6  1  0
M  END
>  <name>  (23) 
Car Nac Nd0 Car Car Car

>  <indices>  (23) 
[0, 1, 2]

>  <dummy>  (23) 
1

>  <tasks>  (23) 
probe_placing close_aromatic_ring close_aromatic_ring

>  <current_task>  (23) 
close_aromatic_ring

>  <prot_clashes>  (23) 
3

>  <NBS phar>  (23) 
0.22000000000000003

>  <NBS_non-phar>  (23) 
0.7330792903900146

>  <NBS>  (23) 
0.9530792903900147

>  <source_stage>  (23) 
scored

>  <source_iter>  (23) 
2

>  <source_parent_mol>  (23) 
0

>  <source_scenario>  (23) 
0 0

>  <source_rank_in_scored_call>  (23) 
9

>  <source_current_task>  (23) 
close_aromatic_ring

>  <rotatable_bond_torsions>  (23) 
1,0,2,3;0,2,3,4

>  <scenario>  (23) 
0 0

>  <reason_to_skip>  (23) 
incorrect arom ring closing

$$$$

     RDKit          3D

  6  5  0  0  0  0  0  0  0  0999 V2000
  -27.8650   -7.7310  -31.7500 C   0  0  0  0  0  0  0  0  0  0  0  0
  -27.6820   -7.0250  -32.9020 N   0  0  0  0  0  0  0  0  0  0  0  0
  -27.6230   -9.1120  -31.7550 N   0  0  0  0  0  0  0  0  0  0  0  0
  -28.7540   -9.8600  -31.5320 C   0  0  0  0  0  0  0  0  0  0  0  0
  -29.2727  -10.7316  -32.5578 C   0  0  0  0  0  0  0  0  0  0  0  0
  -28.7612  -10.9174  -33.7897 N   0  0  0  0  0  0  0  0  0  0  0  0
  1  2  2  0
  1  3  1  0
  3  4  1  0
  4  5  2  3
  5  6  1  0
M  END
>  <name>  (24) 
Car Nac Nd0 Car Car Nac

>  <indices>  (24) 
[0, 1, 2]

>  <dummy>  (24) 
1

>  <tasks>  (24) 
probe_placing close_aromatic_ring close_aromatic_ring

>  <current_task>  (24) 
close_aromatic_ring

>  <prot_clashes>  (24) 
3

>  <NBS phar>  (24) 
0.22000000000000003

>  <NBS_non-phar>  (24) 
0.7330792903900146

>  <NBS>  (24) 
0.9530792903900147

>  <source_stage>  (24) 
scored

>  <source_iter>  (24) 
2

>  <source_parent_mol>  (24) 
0

>  <source_scenario>  (24) 
0 0

>  <source_rank_in_scored_call>  (24) 
9

>  <source_current_task>  (24) 
close_aromatic_ring

>  <rotatable_bond_torsions>  (24) 
1,0,2,3;0,2,3,4

>  <scenario>  (24) 
0 0

>  <reason_to_skip>  (24) 
subgraph mismatch

$$$$

     RDKit          3D

  6  5  0  0  0  0  0  0  0  0999 V2000
  -27.8650   -7.7310  -31.7500 C   0  0  0  0  0  0  0  0  0  0  0  0
  -27.6820   -7.0250  -32.9020 N   0  0  0  0  0  0  0  0  0  0  0  0
  -27.6230   -9.1120  -31.7550 N   0  0  0  0  0  0  0  0  0  0  0  0
  -28.7540   -9.8600  -31.5320 C   0  0  0  0  0  0  0  0  0  0  0  0
  -29.2727  -10.7316  -32.5578 C   0  0  0  0  0  0  0  0  0  0  0  0
  -28.8270  -11.0589  -33.8906 C   0  0  0  0  0  0  0  0  0  0  0  0
  1  2  2  0
  1  3  1  0
  3  4  1  0
  4  5  2  3
  5  6  1  0
M  END
>  <name>  (25) 
Car Nac Nd0 Car Car Car

>  <indices>  (25) 
[0, 1, 2]

>  <dummy>  (25) 
1

>  <tasks>  (25) 
probe_placing close_aromatic_ring close_aromatic_ring

>  <current_task>  (25) 
close_aromatic_ring

>  <prot_clashes>  (25) 
3

>  <NBS phar>  (25) 
0.22000000000000003

>  <NBS_non-phar>  (25) 
0.7330792903900146

>  <NBS>  (25) 
0.9530792903900147

>  <source_stage>  (25) 
scored

>  <source_iter>  (25) 
2

>  <source_parent_mol>  (25) 
0

>  <source_scenario>  (25) 
0 0

>  <source_rank_in_scored_call>  (25) 
9

>  <source_current_task>  (25) 
close_aromatic_ring

>  <rotatable_bond_torsions>  (25) 
1,0,2,3;0,2,3,4

>  <scenario>  (25) 
0 0

>  <reason_to_skip>  (25) 
subgraph mismatch

$$$$

     RDKit          3D

  6  5  0  0  0  0  0  0  0  0999 V2000
  -27.8650   -7.7310  -31.7500 C   0  0  0  0  0  0  0  0  0  0  0  0
  -27.6820   -7.0250  -32.9020 N   0  0  0  0  0  0  0  0  0  0  0  0
  -27.6230   -9.1120  -31.7550 N   0  0  0  0  0  0  0  0  0  0  0  0
  -28.7540   -9.8600  -31.5320 C   0  0  0  0  0  0  0  0  0  0  0  0
  -29.2727  -10.7316  -32.5578 C   0  0  0  0  0  0  0  0  0  0  0  0
  -28.7076  -10.8869  -33.8001 C   0  0  0  0  0  0  0  0  0  0  0  0
  1  2  2  0
  1  3  1  0
  3  4  1  0
  4  5  2  3
  5  6  1  0
M  END
>  <name>  (26) 
Car Nac Nd0 Car Car Car

>  <indices>  (26) 
[0, 1, 2]

>  <dummy>  (26) 
1

>  <tasks>  (26) 
probe_placing close_aromatic_ring close_aromatic_ring

>  <current_task>  (26) 
close_aromatic_ring

>  <prot_clashes>  (26) 
3

>  <NBS phar>  (26) 
0.22000000000000003

>  <NBS_non-phar>  (26) 
0.7330792903900146

>  <NBS>  (26) 
0.9530792903900147

>  <source_stage>  (26) 
scored

>  <source_iter>  (26) 
2

>  <source_parent_mol>  (26) 
0

>  <source_scenario>  (26) 
0 0

>  <source_rank_in_scored_call>  (26) 
9

>  <source_current_task>  (26) 
close_aromatic_ring

>  <rotatable_bond_torsions>  (26) 
1,0,2,3;0,2,3,4

>  <scenario>  (26) 
0 0

>  <reason_to_skip>  (26) 
subgraph mismatch

$$$$

     RDKit          3D

  6  5  0  0  0  0  0  0  0  0999 V2000
  -27.8650   -7.7310  -31.7500 C   0  0  0  0  0  0  0  0  0  0  0  0
  -27.6820   -7.0250  -32.9020 N   0  0  0  0  0  0  0  0  0  0  0  0
  -27.6230   -9.1120  -31.7550 N   0  0  0  0  0  0  0  0  0  0  0  0
  -28.7540   -9.8600  -31.5320 C   0  0  0  0  0  0  0  0  0  0  0  0
  -29.2727  -10.7316  -32.5578 C   0  0  0  0  0  0  0  0  0  0  0  0
  -28.8696  -11.0467  -33.7534 N   0  0  0  0  0  0  0  0  0  0  0  0
  1  2  2  0
  1  3  1  0
  3  4  1  0
  4  5  2  3
  5  6  1  0
M  END
>  <name>  (27) 
Car Nac Nd0 Car Car Nd0

>  <indices>  (27) 
[0, 1, 2]

>  <dummy>  (27) 
1

>  <tasks>  (27) 
probe_placing close_aromatic_ring close_aromatic_ring

>  <current_task>  (27) 
close_aromatic_ring

>  <prot_clashes>  (27) 
3

>  <NBS phar>  (27) 
0.22000000000000003

>  <NBS_non-phar>  (27) 
0.7330792903900146

>  <NBS>  (27) 
0.9530792903900147

>  <source_stage>  (27) 
scored

>  <source_iter>  (27) 
2

>  <source_parent_mol>  (27) 
0

>  <source_scenario>  (27) 
0 0

>  <source_rank_in_scored_call>  (27) 
9

>  <source_current_task>  (27) 
close_aromatic_ring

>  <rotatable_bond_torsions>  (27) 
1,0,2,3;0,2,3,4

>  <scenario>  (27) 
0 0

>  <reason_to_skip>  (27) 
subgraph mismatch

$$$$

     RDKit          3D

  5  4  0  0  0  0  0  0  0  0999 V2000
  -27.8640   -7.4760  -31.1990 C   0  0  0  0  0  0  0  0  0  0  0  0
  -27.5380   -6.7190  -32.2850 N   0  0  0  0  0  0  0  0  0  0  0  0
  -27.6840   -8.8650  -31.2620 N   0  0  0  0  0  0  0  0  0  0  0  0
  -28.0975   -9.2947  -30.0006 C   0  0  0  0  0  0  0  0  0  0  0  0
  -28.5583   -8.7005  -28.8979 C   0  0  0  0  0  0  0  0  0  0  0  0
  1  2  2  0
  1  3  1  0
  3  4  1  0
  4  5  2  0
M  END
>  <name>  (1) 
Car Nac Nd0 Car Car

>  <indices>  (1) 
[0, 1, 2]

>  <dummy>  (1) 
1

>  <tasks>  (1) 
probe_placing close_aromatic_ring

>  <current_task>  (1) 
close_aromatic_ring

>  <prot_clashes>  (1) 
0

>  <NBS phar>  (1) 
0.2

>  <NBS_non-phar>  (1) 
0.9266523122787476

>  <NBS>  (1) 
1.1266523122787475

>  <source_stage>  (1) 
scored

>  <source_iter>  (1) 
1

>  <source_parent_mol>  (1) 
0

>  <source_scenario>  (1) 
0

>  <source_rank_in_scored_call>  (1) 
1

>  <source_current_task>  (1) 
close_aromatic_ring

>  <rotatable_bond_torsions>  (1) 
1,0,2,3

>  <scenario>  (1) 
0

>  <reason_to_skip>  (1) 
bad angles

$$$$

     RDKit          3D

  5  4  0  0  0  0  0  0  0  0999 V2000
  -27.8640   -7.4760  -31.1990 C   0  0  0  0  0  0  0  0  0  0  0  0
  -27.5380   -6.7190  -32.2850 N   0  0  0  0  0  0  0  0  0  0  0  0
  -27.6840   -8.8650  -31.2620 N   0  0  0  0  0  0  0  0  0  0  0  0
  -28.0975   -9.2947  -30.0006 C   0  0  0  0  0  0  0  0  0  0  0  0
    0.0000    0.0000    0.0000 S   0  0  0  0  0  0  0  0  0  0  0  0
  1  2  2  0
  1  3  1  0
  3  4  1  0
  4  5  1  0
M  END
>  <name>  (2) 
Car Nac Nd0 Car Sul

>  <indices>  (2) 
[0, 1, 2]

>  <dummy>  (2) 
1

>  <tasks>  (2) 
probe_placing close_aromatic_ring

>  <current_task>  (2) 
close_aromatic_ring

>  <prot_clashes>  (2) 
0

>  <NBS phar>  (2) 
0.2

>  <NBS_non-phar>  (2) 
0.9266523122787476

>  <NBS>  (2) 
1.1266523122787475

>  <source_stage>  (2) 
scored

>  <source_iter>  (2) 
1

>  <source_parent_mol>  (2) 
0

>  <source_scenario>  (2) 
0

>  <source_rank_in_scored_call>  (2) 
1

>  <source_current_task>  (2) 
close_aromatic_ring

>  <rotatable_bond_torsions>  (2) 
1,0,2,3

>  <scenario>  (2) 
0

>  <reason_to_skip>  (2) 
some_atom_counter_exceeded

$$$$

     RDKit          3D

  5  4  0  0  0  0  0  0  0  0999 V2000
  -27.8640   -7.4760  -31.1990 C   0  0  0  0  0  0  0  0  0  0  0  0
  -27.5380   -6.7190  -32.2850 N   0  0  0  0  0  0  0  0  0  0  0  0
  -27.6840   -8.8650  -31.2620 N   0  0  0  0  0  0  0  0  0  0  0  0
  -28.0975   -9.2947  -30.0006 C   0  0  0  0  0  0  0  0  0  0  0  0
    0.0000    0.0000    0.0000 S   0  0  0  0  0  0  0  0  0  0  0  0
  1  2  2  0
  1  3  1  0
  3  4  1  0
  4  5  1  0
M  END
>  <name>  (3) 
Car Nac Nd0 Car Sul

>  <indices>  (3) 
[0, 1, 2]

>  <dummy>  (3) 
1

>  <tasks>  (3) 
probe_placing close_aromatic_ring

>  <current_task>  (3) 
close_aromatic_ring

>  <prot_clashes>  (3) 
0

>  <NBS phar>  (3) 
0.2

>  <NBS_non-phar>  (3) 
0.9266523122787476

>  <NBS>  (3) 
1.1266523122787475

>  <source_stage>  (3) 
scored

>  <source_iter>  (3) 
1

>  <source_parent_mol>  (3) 
0

>  <source_scenario>  (3) 
0

>  <source_rank_in_scored_call>  (3) 
1

>  <source_current_task>  (3) 
close_aromatic_ring

>  <rotatable_bond_torsions>  (3) 
1,0,2,3

>  <scenario>  (3) 
0

>  <reason_to_skip>  (3) 
some_atom_counter_exceeded

$$$$

     RDKit          3D

  5  4  0  0  0  0  0  0  0  0999 V2000
  -27.8640   -7.4760  -31.1990 C   0  0  0  0  0  0  0  0  0  0  0  0
  -27.5380   -6.7190  -32.2850 N   0  0  0  0  0  0  0  0  0  0  0  0
  -27.6840   -8.8650  -31.2620 N   0  0  0  0  0  0  0  0  0  0  0  0
  -28.0975   -9.2947  -30.0006 C   0  0  0  0  0  0  0  0  0  0  0  0
  -27.8778   -8.9473  -28.7773 N   0  0  0  0  0  0  0  0  0  0  0  0
  1  2  2  0
  1  3  1  0
  3  4  1  0
  4  5  2  0
M  END
>  <name>  (4) 
Car Nac Nd0 Car Nac

>  <indices>  (4) 
[0, 1, 2]

>  <dummy>  (4) 
1

>  <tasks>  (4) 
probe_placing close_aromatic_ring

>  <current_task>  (4) 
close_aromatic_ring

>  <prot_clashes>  (4) 
0

>  <NBS phar>  (4) 
0.2

>  <NBS_non-phar>  (4) 
0.9266523122787476

>  <NBS>  (4) 
1.1266523122787475

>  <source_stage>  (4) 
scored

>  <source_iter>  (4) 
1

>  <source_parent_mol>  (4) 
0

>  <source_scenario>  (4) 
0

>  <source_rank_in_scored_call>  (4) 
1

>  <source_current_task>  (4) 
close_aromatic_ring

>  <rotatable_bond_torsions>  (4) 
1,0,2,3

>  <scenario>  (4) 
0

>  <reason_to_skip>  (4) 
bad angles

$$$$

     RDKit          3D

  5  4  0  0  0  0  0  0  0  0999 V2000
  -27.8640   -7.4760  -31.1990 C   0  0  0  0  0  0  0  0  0  0  0  0
  -27.5380   -6.7190  -32.2850 N   0  0  0  0  0  0  0  0  0  0  0  0
  -27.6840   -8.8650  -31.2620 N   0  0  0  0  0  0  0  0  0  0  0  0
  -28.0975   -9.2947  -30.0006 C   0  0  0  0  0  0  0  0  0  0  0  0
    0.0000    0.0000    0.0000 O   0  0  0  0  0  0  0  0  0  0  0  0
  1  2  2  0
  1  3  1  0
  3  4  1  0
  4  5  1  0
M  END
>  <name>  (5) 
Car Nac Nd0 Car O_a

>  <indices>  (5) 
[0, 1, 2]

>  <dummy>  (5) 
1

>  <tasks>  (5) 
probe_placing close_aromatic_ring

>  <current_task>  (5) 
close_aromatic_ring

>  <prot_clashes>  (5) 
0

>  <NBS phar>  (5) 
0.2

>  <NBS_non-phar>  (5) 
0.9266523122787476

>  <NBS>  (5) 
1.1266523122787475

>  <source_stage>  (5) 
scored

>  <source_iter>  (5) 
1

>  <source_parent_mol>  (5) 
0

>  <source_scenario>  (5) 
0

>  <source_rank_in_scored_call>  (5) 
1

>  <source_current_task>  (5) 
close_aromatic_ring

>  <rotatable_bond_torsions>  (5) 
1,0,2,3

>  <scenario>  (5) 
0

>  <reason_to_skip>  (5) 
some_atom_counter_exceeded

$$$$

     RDKit          3D

  5  4  0  0  0  0  0  0  0  0999 V2000
  -27.8640   -7.4760  -31.1990 C   0  0  0  0  0  0  0  0  0  0  0  0
  -27.5380   -6.7190  -32.2850 N   0  0  0  0  0  0  0  0  0  0  0  0
  -27.6840   -8.8650  -31.2620 N   0  0  0  0  0  0  0  0  0  0  0  0
  -28.0975   -9.2947  -30.0006 C   0  0  0  0  0  0  0  0  0  0  0  0
    0.0000    0.0000    0.0000 S   0  0  0  0  0  0  0  0  0  0  0  0
  1  2  2  0
  1  3  1  0
  3  4  1  0
  4  5  1  0
M  END
>  <name>  (6) 
Car Nac Nd0 Car Sul

>  <indices>  (6) 
[0, 1, 2]

>  <dummy>  (6) 
1

>  <tasks>  (6) 
probe_placing close_aromatic_ring

>  <current_task>  (6) 
close_aromatic_ring

>  <prot_clashes>  (6) 
0

>  <NBS phar>  (6) 
0.2

>  <NBS_non-phar>  (6) 
0.9266523122787476

>  <NBS>  (6) 
1.1266523122787475

>  <source_stage>  (6) 
scored

>  <source_iter>  (6) 
1

>  <source_parent_mol>  (6) 
0

>  <source_scenario>  (6) 
0

>  <source_rank_in_scored_call>  (6) 
1

>  <source_current_task>  (6) 
close_aromatic_ring

>  <rotatable_bond_torsions>  (6) 
1,0,2,3

>  <scenario>  (6) 
0

>  <reason_to_skip>  (6) 
some_atom_counter_exceeded

$$$$

     RDKit          3D

  5  4  0  0  0  0  0  0  0  0999 V2000
  -27.8640   -7.4760  -31.1990 C   0  0  0  0  0  0  0  0  0  0  0  0
  -27.5380   -6.7190  -32.2850 N   0  0  0  0  0  0  0  0  0  0  0  0
  -27.6840   -8.8650  -31.2620 N   0  0  0  0  0  0  0  0  0  0  0  0
  -28.0975   -9.2947  -30.0006 C   0  0  0  0  0  0  0  0  0  0  0  0
  -29.3891   -9.7747  -29.6153 N   0  0  0  0  0  0  0  0  0  0  0  0
  1  2  2  0
  1  3  1  0
  3  4  1  0
  4  5  1  0
M  END
>  <name>  (7) 
Car Nac Nd0 Car Nac

>  <indices>  (7) 
[0, 1, 2]

>  <dummy>  (7) 
1

>  <tasks>  (7) 
probe_placing close_aromatic_ring

>  <current_task>  (7) 
close_aromatic_ring

>  <prot_clashes>  (7) 
0

>  <NBS phar>  (7) 
0.2

>  <NBS_non-phar>  (7) 
0.9266523122787476

>  <NBS>  (7) 
1.1266523122787475

>  <source_stage>  (7) 
scored

>  <source_iter>  (7) 
1

>  <source_parent_mol>  (7) 
0

>  <source_scenario>  (7) 
0

>  <source_rank_in_scored_call>  (7) 
1

>  <source_current_task>  (7) 
close_aromatic_ring

>  <rotatable_bond_torsions>  (7) 
1,0,2,3

>  <scenario>  (7) 
0

>  <reason_to_skip>  (7) 
bad dihedral

$$$$

     RDKit          3D

  5  4  0  0  0  0  0  0  0  0999 V2000
  -27.8640   -7.4760  -31.1990 C   0  0  0  0  0  0  0  0  0  0  0  0
  -27.5380   -6.7190  -32.2850 N   0  0  0  0  0  0  0  0  0  0  0  0
  -27.6840   -8.8650  -31.2620 N   0  0  0  0  0  0  0  0  0  0  0  0
  -28.0975   -9.2947  -30.0006 C   0  0  0  0  0  0  0  0  0  0  0  0
  -27.8024  -10.6980  -29.7943 N   0  0  0  0  0  0  0  0  0  0  0  0
  1  2  2  0
  1  3  1  0
  3  4  1  0
  4  5  1  0
M  END
>  <name>  (8) 
Car Nac Nd0 Car Nd0

>  <indices>  (8) 
[0, 1, 2]

>  <dummy>  (8) 
1

>  <tasks>  (8) 
probe_placing close_aromatic_ring

>  <current_task>  (8) 
close_aromatic_ring

>  <prot_clashes>  (8) 
0

>  <NBS phar>  (8) 
0.2

>  <NBS_non-phar>  (8) 
0.9266523122787476

>  <NBS>  (8) 
1.1266523122787475

>  <source_stage>  (8) 
scored

>  <source_iter>  (8) 
1

>  <source_parent_mol>  (8) 
0

>  <source_scenario>  (8) 
0

>  <source_rank_in_scored_call>  (8) 
1

>  <source_current_task>  (8) 
close_aromatic_ring

>  <rotatable_bond_torsions>  (8) 
1,0,2,3

>  <scenario>  (8) 
0

>  <reason_to_skip>  (8) 
subgraph mismatch

$$$$

     RDKit          3D

  5  4  0  0  0  0  0  0  0  0999 V2000
  -27.8640   -7.4760  -31.1990 C   0  0  0  0  0  0  0  0  0  0  0  0
  -27.5380   -6.7190  -32.2850 N   0  0  0  0  0  0  0  0  0  0  0  0
  -27.6840   -8.8650  -31.2620 N   0  0  0  0  0  0  0  0  0  0  0  0
  -28.0975   -9.2947  -30.0006 C   0  0  0  0  0  0  0  0  0  0  0  0
  -28.5461   -8.6023  -29.0267 N   0  0  0  0  0  0  0  0  0  0  0  0
  1  2  2  0
  1  3  1  0
  3  4  1  0
  4  5  1  0
M  END
>  <name>  (9) 
Car Nac Nd0 Car Nd0

>  <indices>  (9) 
[0, 1, 2]

>  <dummy>  (9) 
1

>  <tasks>  (9) 
probe_placing close_aromatic_ring

>  <current_task>  (9) 
close_aromatic_ring

>  <prot_clashes>  (9) 
0

>  <NBS phar>  (9) 
0.2

>  <NBS_non-phar>  (9) 
0.9266523122787476

>  <NBS>  (9) 
1.1266523122787475

>  <source_stage>  (9) 
scored

>  <source_iter>  (9) 
1

>  <source_parent_mol>  (9) 
0

>  <source_scenario>  (9) 
0

>  <source_rank_in_scored_call>  (9) 
1

>  <source_current_task>  (9) 
close_aromatic_ring

>  <rotatable_bond_torsions>  (9) 
1,0,2,3

>  <scenario>  (9) 
0

>  <reason_to_skip>  (9) 
subgraph mismatch

$$$$

     RDKit          3D

  5  4  0  0  0  0  0  0  0  0999 V2000
  -27.8640   -7.4760  -31.1990 C   0  0  0  0  0  0  0  0  0  0  0  0
  -27.5380   -6.7190  -32.2850 N   0  0  0  0  0  0  0  0  0  0  0  0
  -27.6840   -8.8650  -31.2620 N   0  0  0  0  0  0  0  0  0  0  0  0
  -28.0975   -9.2947  -30.0006 C   0  0  0  0  0  0  0  0  0  0  0  0
  -27.8943  -10.7253  -29.8418 N   0  0  0  0  0  0  0  0  0  0  0  0
  1  2  2  0
  1  3  1  0
  3  4  1  0
  4  5  2  0
M  END
>  <name>  (10) 
Car Nac Nd0 Car Nac

>  <indices>  (10) 
[0, 1, 2]

>  <dummy>  (10) 
1

>  <tasks>  (10) 
probe_placing close_aromatic_ring

>  <current_task>  (10) 
close_aromatic_ring

>  <prot_clashes>  (10) 
0

>  <NBS phar>  (10) 
0.2

>  <NBS_non-phar>  (10) 
0.9266523122787476

>  <NBS>  (10) 
1.1266523122787475

>  <source_stage>  (10) 
scored

>  <source_iter>  (10) 
1

>  <source_parent_mol>  (10) 
0

>  <source_scenario>  (10) 
0

>  <source_rank_in_scored_call>  (10) 
1

>  <source_current_task>  (10) 
close_aromatic_ring

>  <rotatable_bond_torsions>  (10) 
1,0,2,3

>  <scenario>  (10) 
0

>  <reason_to_skip>  (10) 
subgraph mismatch

$$$$

     RDKit          3D

  5  4  0  0  0  0  0  0  0  0999 V2000
  -27.8640   -7.4760  -31.1990 C   0  0  0  0  0  0  0  0  0  0  0  0
  -27.5380   -6.7190  -32.2850 N   0  0  0  0  0  0  0  0  0  0  0  0
  -27.6840   -8.8650  -31.2620 N   0  0  0  0  0  0  0  0  0  0  0  0
  -28.0975   -9.2947  -30.0006 C   0  0  0  0  0  0  0  0  0  0  0  0
  -29.2120  -10.0870  -29.8605 N   0  0  0  0  0  0  0  0  0  0  0  0
  1  2  2  0
  1  3  1  0
  3  4  1  0
  4  5  2  0
M  END
>  <name>  (11) 
Car Nac Nd0 Car Nac

>  <indices>  (11) 
[0, 1, 2]

>  <dummy>  (11) 
1

>  <tasks>  (11) 
probe_placing close_aromatic_ring

>  <current_task>  (11) 
close_aromatic_ring

>  <prot_clashes>  (11) 
0

>  <NBS phar>  (11) 
0.2

>  <NBS_non-phar>  (11) 
0.9266523122787476

>  <NBS>  (11) 
1.1266523122787475

>  <source_stage>  (11) 
scored

>  <source_iter>  (11) 
1

>  <source_parent_mol>  (11) 
0

>  <source_scenario>  (11) 
0

>  <source_rank_in_scored_call>  (11) 
1

>  <source_current_task>  (11) 
close_aromatic_ring

>  <rotatable_bond_torsions>  (11) 
1,0,2,3

>  <scenario>  (11) 
0

>  <reason_to_skip>  (11) 
subgraph mismatch

$$$$

     RDKit          3D

  5  4  0  0  0  0  0  0  0  0999 V2000
  -27.8640   -7.4760  -31.1990 C   0  0  0  0  0  0  0  0  0  0  0  0
  -27.5380   -6.7190  -32.2850 N   0  0  0  0  0  0  0  0  0  0  0  0
  -27.6840   -8.8650  -31.2620 N   0  0  0  0  0  0  0  0  0  0  0  0
  -28.0975   -9.2947  -30.0006 C   0  0  0  0  0  0  0  0  0  0  0  0
  -28.3910   -8.7139  -28.9148 N   0  0  0  0  0  0  0  0  0  0  0  0
  1  2  2  0
  1  3  1  0
  3  4  1  0
  4  5  1  0
M  END
>  <name>  (12) 
Car Nac Nd0 Car Nac

>  <indices>  (12) 
[0, 1, 2]

>  <dummy>  (12) 
1

>  <tasks>  (12) 
probe_placing close_aromatic_ring

>  <current_task>  (12) 
close_aromatic_ring

>  <prot_clashes>  (12) 
0

>  <NBS phar>  (12) 
0.2

>  <NBS_non-phar>  (12) 
0.9266523122787476

>  <NBS>  (12) 
1.1266523122787475

>  <source_stage>  (12) 
scored

>  <source_iter>  (12) 
1

>  <source_parent_mol>  (12) 
0

>  <source_scenario>  (12) 
0

>  <source_rank_in_scored_call>  (12) 
1

>  <source_current_task>  (12) 
close_aromatic_ring

>  <rotatable_bond_torsions>  (12) 
1,0,2,3

>  <scenario>  (12) 
0

>  <reason_to_skip>  (12) 
subgraph mismatch

$$$$

     RDKit          3D

  5  4  0  0  0  0  0  0  0  0999 V2000
  -27.8640   -7.4760  -31.1990 C   0  0  0  0  0  0  0  0  0  0  0  0
  -27.5380   -6.7190  -32.2850 N   0  0  0  0  0  0  0  0  0  0  0  0
  -27.6840   -8.8650  -31.2620 N   0  0  0  0  0  0  0  0  0  0  0  0
  -28.0975   -9.2947  -30.0006 C   0  0  0  0  0  0  0  0  0  0  0  0
  -28.1141  -10.5822  -29.5932 N   0  0  0  0  0  0  0  0  0  0  0  0
  1  2  2  0
  1  3  1  0
  3  4  1  0
  4  5  1  0
M  END
>  <name>  (13) 
Car Nac Nd0 Car Nac

>  <indices>  (13) 
[0, 1, 2]

>  <dummy>  (13) 
1

>  <tasks>  (13) 
probe_placing close_aromatic_ring

>  <current_task>  (13) 
close_aromatic_ring

>  <prot_clashes>  (13) 
0

>  <NBS phar>  (13) 
0.2

>  <NBS_non-phar>  (13) 
0.9266523122787476

>  <NBS>  (13) 
1.1266523122787475

>  <source_stage>  (13) 
scored

>  <source_iter>  (13) 
1

>  <source_parent_mol>  (13) 
0

>  <source_scenario>  (13) 
0

>  <source_rank_in_scored_call>  (13) 
1

>  <source_current_task>  (13) 
close_aromatic_ring

>  <rotatable_bond_torsions>  (13) 
1,0,2,3

>  <scenario>  (13) 
0

>  <reason_to_skip>  (13) 
subgraph mismatch

$$$$

     RDKit          3D

  5  4  0  0  0  0  0  0  0  0999 V2000
  -27.8640   -7.4760  -31.1990 C   0  0  0  0  0  0  0  0  0  0  0  0
  -27.5380   -6.7190  -32.2850 N   0  0  0  0  0  0  0  0  0  0  0  0
  -27.6840   -8.8650  -31.2620 N   0  0  0  0  0  0  0  0  0  0  0  0
  -28.0975   -9.2947  -30.0006 C   0  0  0  0  0  0  0  0  0  0  0  0
  -27.1250   -9.9761  -29.2892 N   0  0  0  0  0  0  0  0  0  0  0  0
  1  2  2  0
  1  3  1  0
  3  4  1  0
  4  5  1  0
M  END
>  <name>  (14) 
Car Nac Nd0 Car Nac

>  <indices>  (14) 
[0, 1, 2]

>  <dummy>  (14) 
1

>  <tasks>  (14) 
probe_placing close_aromatic_ring

>  <current_task>  (14) 
close_aromatic_ring

>  <prot_clashes>  (14) 
0

>  <NBS phar>  (14) 
0.2

>  <NBS_non-phar>  (14) 
0.9266523122787476

>  <NBS>  (14) 
1.1266523122787475

>  <source_stage>  (14) 
scored

>  <source_iter>  (14) 
1

>  <source_parent_mol>  (14) 
0

>  <source_scenario>  (14) 
0

>  <source_rank_in_scored_call>  (14) 
1

>  <source_current_task>  (14) 
close_aromatic_ring

>  <rotatable_bond_torsions>  (14) 
1,0,2,3

>  <scenario>  (14) 
0

>  <reason_to_skip>  (14) 
subgraph mismatch

$$$$

     RDKit          3D

  6  5  0  0  0  0  0  0  0  0999 V2000
  -27.8640   -7.4760  -31.1990 C   0  0  0  0  0  0  0  0  0  0  0  0
  -27.5380   -6.7190  -32.2850 N   0  0  0  0  0  0  0  0  0  0  0  0
  -27.6840   -8.8650  -31.2620 N   0  0  0  0  0  0  0  0  0  0  0  0
  -28.0975   -9.2947  -30.0006 C   0  0  0  0  0  0  0  0  0  0  0  0
  -28.3802  -10.8247  -30.1335 C   0  0  0  0  0  0  0  0  0  0  0  0
  -28.7792  -11.5165  -28.8021 C   0  0  0  0  0  0  0  0  0  0  0  0
  1  2  2  0
  1  3  1  0
  3  4  1  0
  4  5  1  0
  5  6  1  0
M  END
>  <name>  (1) 
Car Nac Nd0 Car Car Car

>  <indices>  (1) 
[0, 1, 2]

>  <dummy>  (1) 
1

>  <tasks>  (1) 
probe_placing close_aromatic_ring close_aromatic_ring

>  <current_task>  (1) 
close_aromatic_ring

>  <prot_clashes>  (1) 
0

>  <NBS phar>  (1) 
0.2

>  <NBS_non-phar>  (1) 
0.9181889533996582

>  <NBS>  (1) 
1.1181889533996583

>  <source_stage>  (1) 
scored

>  <source_iter>  (1) 
2

>  <source_parent_mol>  (1) 
1

>  <source_scenario>  (1) 
0 1

>  <source_rank_in_scored_call>  (1) 
0

>  <source_current_task>  (1) 
close_aromatic_ring

>  <rotatable_bond_torsions>  (1) 
1,0,2,3;0,2,3,4

>  <scenario>  (1) 
0 1

>  <reason_to_skip>  (1) 
incorrect arom ring closing

$$$$

     RDKit          3D

  6  5  0  0  0  0  0  0  0  0999 V2000
  -27.8640   -7.4760  -31.1990 C   0  0  0  0  0  0  0  0  0  0  0  0
  -27.5380   -6.7190  -32.2850 N   0  0  0  0  0  0  0  0  0  0  0  0
  -27.6840   -8.8650  -31.2620 N   0  0  0  0  0  0  0  0  0  0  0  0
  -28.0975   -9.2947  -30.0006 C   0  0  0  0  0  0  0  0  0  0  0  0
  -28.3802  -10.8247  -30.1335 C   0  0  0  0  0  0  0  0  0  0  0  0
  -28.9462  -11.4603  -28.8084 C   0  0  0  0  0  0  0  0  0  0  0  0
  1  2  2  0
  1  3  1  0
  3  4  1  0
  4  5  1  0
  5  6  2  0
M  END
>  <name>  (2) 
Car Nac Nd0 Car Car Car

>  <indices>  (2) 
[0, 1, 2]

>  <dummy>  (2) 
1

>  <tasks>  (2) 
probe_placing close_aromatic_ring close_aromatic_ring

>  <current_task>  (2) 
close_aromatic_ring

>  <prot_clashes>  (2) 
0

>  <NBS phar>  (2) 
0.2

>  <NBS_non-phar>  (2) 
0.9181889533996582

>  <NBS>  (2) 
1.1181889533996583

>  <source_stage>  (2) 
scored

>  <source_iter>  (2) 
2

>  <source_parent_mol>  (2) 
1

>  <source_scenario>  (2) 
0 1

>  <source_rank_in_scored_call>  (2) 
0

>  <source_current_task>  (2) 
close_aromatic_ring

>  <rotatable_bond_torsions>  (2) 
1,0,2,3;0,2,3,4

>  <scenario>  (2) 
0 1

>  <reason_to_skip>  (2) 
incorrect arom ring closing

$$$$

     RDKit          3D

  6  5  0  0  0  0  0  0  0  0999 V2000
  -27.8640   -7.4760  -31.1990 C   0  0  0  0  0  0  0  0  0  0  0  0
  -27.5380   -6.7190  -32.2850 N   0  0  0  0  0  0  0  0  0  0  0  0
  -27.6840   -8.8650  -31.2620 N   0  0  0  0  0  0  0  0  0  0  0  0
  -28.0975   -9.2947  -30.0006 C   0  0  0  0  0  0  0  0  0  0  0  0
  -28.3802  -10.8247  -30.1335 C   0  0  0  0  0  0  0  0  0  0  0  0
  -28.3539  -11.7950  -31.0041 N   0  0  0  0  0  0  0  0  0  0  0  0
  1  2  2  0
  1  3  1  0
  3  4  1  0
  4  5  1  0
  5  6  1  0
M  END
>  <name>  (3) 
Car Nac Nd0 Car Car Nac

>  <indices>  (3) 
[0, 1, 2]

>  <dummy>  (3) 
1

>  <tasks>  (3) 
probe_placing close_aromatic_ring close_aromatic_ring

>  <current_task>  (3) 
close_aromatic_ring

>  <prot_clashes>  (3) 
0

>  <NBS phar>  (3) 
0.2

>  <NBS_non-phar>  (3) 
0.9181889533996582

>  <NBS>  (3) 
1.1181889533996583

>  <source_stage>  (3) 
scored

>  <source_iter>  (3) 
2

>  <source_parent_mol>  (3) 
1

>  <source_scenario>  (3) 
0 1

>  <source_rank_in_scored_call>  (3) 
0

>  <source_current_task>  (3) 
close_aromatic_ring

>  <rotatable_bond_torsions>  (3) 
1,0,2,3;0,2,3,4

>  <scenario>  (3) 
0 1

>  <reason_to_skip>  (3) 
bad angles

$$$$

     RDKit          3D

  6  5  0  0  0  0  0  0  0  0999 V2000
  -27.8640   -7.4760  -31.1990 C   0  0  0  0  0  0  0  0  0  0  0  0
  -27.5380   -6.7190  -32.2850 N   0  0  0  0  0  0  0  0  0  0  0  0
  -27.6840   -8.8650  -31.2620 N   0  0  0  0  0  0  0  0  0  0  0  0
  -28.0975   -9.2947  -30.0006 C   0  0  0  0  0  0  0  0  0  0  0  0
  -28.3802  -10.8247  -30.1335 C   0  0  0  0  0  0  0  0  0  0  0  0
  -28.7424  -11.0414  -28.7484 N   0  0  0  0  0  0  0  0  0  0  0  0
  1  2  2  0
  1  3  1  0
  3  4  1  0
  4  5  1  0
  5  6  1  0
M  END
>  <name>  (4) 
Car Nac Nd0 Car Car Nac

>  <indices>  (4) 
[0, 1, 2]

>  <dummy>  (4) 
1

>  <tasks>  (4) 
probe_placing close_aromatic_ring close_aromatic_ring

>  <current_task>  (4) 
close_aromatic_ring

>  <prot_clashes>  (4) 
0

>  <NBS phar>  (4) 
0.2

>  <NBS_non-phar>  (4) 
0.9181889533996582

>  <NBS>  (4) 
1.1181889533996583

>  <source_stage>  (4) 
scored

>  <source_iter>  (4) 
2

>  <source_parent_mol>  (4) 
1

>  <source_scenario>  (4) 
0 1

>  <source_rank_in_scored_call>  (4) 
0

>  <source_current_task>  (4) 
close_aromatic_ring

>  <rotatable_bond_torsions>  (4) 
1,0,2,3;0,2,3,4

>  <scenario>  (4) 
0 1

>  <reason_to_skip>  (4) 
bad angles

$$$$

     RDKit          3D

  6  5  0  0  0  0  0  0  0  0999 V2000
  -27.8640   -7.4760  -31.1990 C   0  0  0  0  0  0  0  0  0  0  0  0
  -27.5380   -6.7190  -32.2850 N   0  0  0  0  0  0  0  0  0  0  0  0
  -27.6840   -8.8650  -31.2620 N   0  0  0  0  0  0  0  0  0  0  0  0
  -28.0975   -9.2947  -30.0006 C   0  0  0  0  0  0  0  0  0  0  0  0
  -28.3802  -10.8247  -30.1335 C   0  0  0  0  0  0  0  0  0  0  0  0
  -28.3225  -11.8442  -31.0598 C   0  0  0  0  0  0  0  0  0  0  0  0
  1  2  2  0
  1  3  1  0
  3  4  1  0
  4  5  1  0
  5  6  1  0
M  END
>  <name>  (5) 
Car Nac Nd0 Car Car Car

>  <indices>  (5) 
[0, 1, 2]

>  <dummy>  (5) 
1

>  <tasks>  (5) 
probe_placing close_aromatic_ring close_aromatic_ring

>  <current_task>  (5) 
close_aromatic_ring

>  <prot_clashes>  (5) 
0

>  <NBS phar>  (5) 
0.2

>  <NBS_non-phar>  (5) 
0.9181889533996582

>  <NBS>  (5) 
1.1181889533996583

>  <source_stage>  (5) 
scored

>  <source_iter>  (5) 
2

>  <source_parent_mol>  (5) 
1

>  <source_scenario>  (5) 
0 1

>  <source_rank_in_scored_call>  (5) 
0

>  <source_current_task>  (5) 
close_aromatic_ring

>  <rotatable_bond_torsions>  (5) 
1,0,2,3;0,2,3,4

>  <scenario>  (5) 
0 1

>  <reason_to_skip>  (5) 
bad angles

$$$$

     RDKit          3D

  6  5  0  0  0  0  0  0  0  0999 V2000
  -27.8640   -7.4760  -31.1990 C   0  0  0  0  0  0  0  0  0  0  0  0
  -27.5380   -6.7190  -32.2850 N   0  0  0  0  0  0  0  0  0  0  0  0
  -27.6840   -8.8650  -31.2620 N   0  0  0  0  0  0  0  0  0  0  0  0
  -28.0975   -9.2947  -30.0006 C   0  0  0  0  0  0  0  0  0  0  0  0
  -28.3802  -10.8247  -30.1335 C   0  0  0  0  0  0  0  0  0  0  0  0
  -28.2665  -11.5946  -31.2099 C   0  0  0  0  0  0  0  0  0  0  0  0
  1  2  2  0
  1  3  1  0
  3  4  1  0
  4  5  1  0
  5  6  2  0
M  END
>  <name>  (6) 
Car Nac Nd0 Car Car Car

>  <indices>  (6) 
[0, 1, 2]

>  <dummy>  (6) 
1

>  <tasks>  (6) 
probe_placing close_aromatic_ring close_aromatic_ring

>  <current_task>  (6) 
close_aromatic_ring

>  <prot_clashes>  (6) 
0

>  <NBS phar>  (6) 
0.2

>  <NBS_non-phar>  (6) 
0.9181889533996582

>  <NBS>  (6) 
1.1181889533996583

>  <source_stage>  (6) 
scored

>  <source_iter>  (6) 
2

>  <source_parent_mol>  (6) 
1

>  <source_scenario>  (6) 
0 1

>  <source_rank_in_scored_call>  (6) 
0

>  <source_current_task>  (6) 
close_aromatic_ring

>  <rotatable_bond_torsions>  (6) 
1,0,2,3;0,2,3,4

>  <scenario>  (6) 
0 1

>  <reason_to_skip>  (6) 
incorrect arom ring closing

$$$$

     RDKit          3D

  6  5  0  0  0  0  0  0  0  0999 V2000
  -27.8640   -7.4760  -31.1990 C   0  0  0  0  0  0  0  0  0  0  0  0
  -27.5380   -6.7190  -32.2850 N   0  0  0  0  0  0  0  0  0  0  0  0
  -27.6840   -8.8650  -31.2620 N   0  0  0  0  0  0  0  0  0  0  0  0
  -28.0975   -9.2947  -30.0006 C   0  0  0  0  0  0  0  0  0  0  0  0
  -28.3802  -10.8247  -30.1335 C   0  0  0  0  0  0  0  0  0  0  0  0
  -28.8318  -11.3634  -28.8660 C   0  0  0  0  0  0  0  0  0  0  0  0
  1  2  2  0
  1  3  1  0
  3  4  1  0
  4  5  1  0
  5  6  1  0
M  END
>  <name>  (7) 
Car Nac Nd0 Car Car Car

>  <indices>  (7) 
[0, 1, 2]

>  <dummy>  (7) 
1

>  <tasks>  (7) 
probe_placing close_aromatic_ring close_aromatic_ring

>  <current_task>  (7) 
close_aromatic_ring

>  <prot_clashes>  (7) 
0

>  <NBS phar>  (7) 
0.2

>  <NBS_non-phar>  (7) 
0.9181889533996582

>  <NBS>  (7) 
1.1181889533996583

>  <source_stage>  (7) 
scored

>  <source_iter>  (7) 
2

>  <source_parent_mol>  (7) 
1

>  <source_scenario>  (7) 
0 1

>  <source_rank_in_scored_call>  (7) 
0

>  <source_current_task>  (7) 
close_aromatic_ring

>  <rotatable_bond_torsions>  (7) 
1,0,2,3;0,2,3,4

>  <scenario>  (7) 
0 1

>  <reason_to_skip>  (7) 
incorrect arom ring closing

$$$$

     RDKit          3D

  6  5  0  0  0  0  0  0  0  0999 V2000
  -27.8640   -7.4760  -31.1990 C   0  0  0  0  0  0  0  0  0  0  0  0
  -27.5380   -6.7190  -32.2850 N   0  0  0  0  0  0  0  0  0  0  0  0
  -27.6840   -8.8650  -31.2620 N   0  0  0  0  0  0  0  0  0  0  0  0
  -28.0975   -9.2947  -30.0006 C   0  0  0  0  0  0  0  0  0  0  0  0
  -28.3802  -10.8247  -30.1335 C   0  0  0  0  0  0  0  0  0  0  0  0
  -28.2872  -11.6366  -31.1509 C   0  0  0  0  0  0  0  0  0  0  0  0
  1  2  2  0
  1  3  1  0
  3  4  1  0
  4  5  1  0
  5  6  1  0
M  END
>  <name>  (8) 
Car Nac Nd0 Car Car Car

>  <indices>  (8) 
[0, 1, 2]

>  <dummy>  (8) 
1

>  <tasks>  (8) 
probe_placing close_aromatic_ring close_aromatic_ring

>  <current_task>  (8) 
close_aromatic_ring

>  <prot_clashes>  (8) 
0

>  <NBS phar>  (8) 
0.2

>  <NBS_non-phar>  (8) 
0.9181889533996582

>  <NBS>  (8) 
1.1181889533996583

>  <source_stage>  (8) 
scored

>  <source_iter>  (8) 
2

>  <source_parent_mol>  (8) 
1

>  <source_scenario>  (8) 
0 1

>  <source_rank_in_scored_call>  (8) 
0

>  <source_current_task>  (8) 
close_aromatic_ring

>  <rotatable_bond_torsions>  (8) 
1,0,2,3;0,2,3,4

>  <scenario>  (8) 
0 1

>  <reason_to_skip>  (8) 
incorrect arom ring closing

$$$$

     RDKit          3D

  6  5  0  0  0  0  0  0  0  0999 V2000
  -27.8640   -7.4760  -31.1990 C   0  0  0  0  0  0  0  0  0  0  0  0
  -27.5380   -6.7190  -32.2850 N   0  0  0  0  0  0  0  0  0  0  0  0
  -27.6840   -8.8650  -31.2620 N   0  0  0  0  0  0  0  0  0  0  0  0
  -28.0975   -9.2947  -30.0006 C   0  0  0  0  0  0  0  0  0  0  0  0
  -28.3802  -10.8247  -30.1335 C   0  0  0  0  0  0  0  0  0  0  0  0
  -28.3037  -11.4892  -31.2280 N   0  0  0  0  0  0  0  0  0  0  0  0
  1  2  2  0
  1  3  1  0
  3  4  1  0
  4  5  1  0
  5  6  2  0
M  END
>  <name>  (9) 
Car Nac Nd0 Car Car Nac

>  <indices>  (9) 
[0, 1, 2]

>  <dummy>  (9) 
1

>  <tasks>  (9) 
probe_placing close_aromatic_ring close_aromatic_ring

>  <current_task>  (9) 
close_aromatic_ring

>  <prot_clashes>  (9) 
0

>  <NBS phar>  (9) 
0.2

>  <NBS_non-phar>  (9) 
0.9181889533996582

>  <NBS>  (9) 
1.1181889533996583

>  <source_stage>  (9) 
scored

>  <source_iter>  (9) 
2

>  <source_parent_mol>  (9) 
1

>  <source_scenario>  (9) 
0 1

>  <source_rank_in_scored_call>  (9) 
0

>  <source_current_task>  (9) 
close_aromatic_ring

>  <rotatable_bond_torsions>  (9) 
1,0,2,3;0,2,3,4

>  <scenario>  (9) 
0 1

>  <reason_to_skip>  (9) 
incorrect arom ring closing

$$$$

     RDKit          3D

  6  5  0  0  0  0  0  0  0  0999 V2000
  -27.8640   -7.4760  -31.1990 C   0  0  0  0  0  0  0  0  0  0  0  0
  -27.5380   -6.7190  -32.2850 N   0  0  0  0  0  0  0  0  0  0  0  0
  -27.6840   -8.8650  -31.2620 N   0  0  0  0  0  0  0  0  0  0  0  0
  -28.0975   -9.2947  -30.0006 C   0  0  0  0  0  0  0  0  0  0  0  0
  -28.3802  -10.8247  -30.1335 C   0  0  0  0  0  0  0  0  0  0  0  0
  -27.7537  -11.7137  -29.1588 C   0  0  0  0  0  0  0  0  0  0  0  0
  1  2  2  0
  1  3  1  0
  3  4  1  0
  4  5  1  0
  5  6  2  0
M  END
>  <name>  (10) 
Car Nac Nd0 Car Car Car

>  <indices>  (10) 
[0, 1, 2]

>  <dummy>  (10) 
1

>  <tasks>  (10) 
probe_placing close_aromatic_ring close_aromatic_ring

>  <current_task>  (10) 
close_aromatic_ring

>  <prot_clashes>  (10) 
0

>  <NBS phar>  (10) 
0.2

>  <NBS_non-phar>  (10) 
0.9181889533996582

>  <NBS>  (10) 
1.1181889533996583

>  <source_stage>  (10) 
scored

>  <source_iter>  (10) 
2

>  <source_parent_mol>  (10) 
1

>  <source_scenario>  (10) 
0 1

>  <source_rank_in_scored_call>  (10) 
0

>  <source_current_task>  (10) 
close_aromatic_ring

>  <rotatable_bond_torsions>  (10) 
1,0,2,3;0,2,3,4

>  <scenario>  (10) 
0 1

>  <reason_to_skip>  (10) 
incorrect arom ring closing

$$$$

     RDKit          3D

  6  5  0  0  0  0  0  0  0  0999 V2000
  -27.8640   -7.4760  -31.1990 C   0  0  0  0  0  0  0  0  0  0  0  0
  -27.5380   -6.7190  -32.2850 N   0  0  0  0  0  0  0  0  0  0  0  0
  -27.6840   -8.8650  -31.2620 N   0  0  0  0  0  0  0  0  0  0  0  0
  -28.0975   -9.2947  -30.0006 C   0  0  0  0  0  0  0  0  0  0  0  0
  -28.3802  -10.8247  -30.1335 C   0  0  0  0  0  0  0  0  0  0  0  0
    0.0000    0.0000    0.0000 O   0  0  0  0  0  0  0  0  0  0  0  0
  1  2  2  0
  1  3  1  0
  3  4  1  0
  4  5  1  0
  5  6  1  0
M  END
>  <name>  (11) 
Car Nac Nd0 Car Car O_a

>  <indices>  (11) 
[0, 1, 2]

>  <dummy>  (11) 
1

>  <tasks>  (11) 
probe_placing close_aromatic_ring close_aromatic_ring

>  <current_task>  (11) 
close_aromatic_ring

>  <prot_clashes>  (11) 
0

>  <NBS phar>  (11) 
0.2

>  <NBS_non-phar>  (11) 
0.9181889533996582

>  <NBS>  (11) 
1.1181889533996583

>  <source_stage>  (11) 
scored

>  <source_iter>  (11) 
2

>  <source_parent_mol>  (11) 
1

>  <source_scenario>  (11) 
0 1

>  <source_rank_in_scored_call>  (11) 
0

>  <source_current_task>  (11) 
close_aromatic_ring

>  <rotatable_bond_torsions>  (11) 
1,0,2,3;0,2,3,4

>  <scenario>  (11) 
0 1

>  <reason_to_skip>  (11) 
some_atom_counter_exceeded

$$$$

     RDKit          3D

  6  5  0  0  0  0  0  0  0  0999 V2000
  -27.8640   -7.4760  -31.1990 C   0  0  0  0  0  0  0  0  0  0  0  0
  -27.5380   -6.7190  -32.2850 N   0  0  0  0  0  0  0  0  0  0  0  0
  -27.6840   -8.8650  -31.2620 N   0  0  0  0  0  0  0  0  0  0  0  0
  -28.0975   -9.2947  -30.0006 C   0  0  0  0  0  0  0  0  0  0  0  0
  -28.3802  -10.8247  -30.1335 C   0  0  0  0  0  0  0  0  0  0  0  0
  -28.7983  -11.1210  -28.7978 N   0  0  0  0  0  0  0  0  0  0  0  0
  1  2  2  0
  1  3  1  0
  3  4  1  0
  4  5  1  0
  5  6  2  0
M  END
>  <name>  (12) 
Car Nac Nd0 Car Car Nac

>  <indices>  (12) 
[0, 1, 2]

>  <dummy>  (12) 
1

>  <tasks>  (12) 
probe_placing close_aromatic_ring close_aromatic_ring

>  <current_task>  (12) 
close_aromatic_ring

>  <prot_clashes>  (12) 
0

>  <NBS phar>  (12) 
0.2

>  <NBS_non-phar>  (12) 
0.9181889533996582

>  <NBS>  (12) 
1.1181889533996583

>  <source_stage>  (12) 
scored

>  <source_iter>  (12) 
2

>  <source_parent_mol>  (12) 
1

>  <source_scenario>  (12) 
0 1

>  <source_rank_in_scored_call>  (12) 
0

>  <source_current_task>  (12) 
close_aromatic_ring

>  <rotatable_bond_torsions>  (12) 
1,0,2,3;0,2,3,4

>  <scenario>  (12) 
0 1

>  <reason_to_skip>  (12) 
incorrect arom ring closing

$$$$

     RDKit          3D

  6  5  0  0  0  0  0  0  0  0999 V2000
  -27.8640   -7.4760  -31.1990 C   0  0  0  0  0  0  0  0  0  0  0  0
  -27.5380   -6.7190  -32.2850 N   0  0  0  0  0  0  0  0  0  0  0  0
  -27.6840   -8.8650  -31.2620 N   0  0  0  0  0  0  0  0  0  0  0  0
  -28.0975   -9.2947  -30.0006 C   0  0  0  0  0  0  0  0  0  0  0  0
  -28.3802  -10.8247  -30.1335 C   0  0  0  0  0  0  0  0  0  0  0  0
  -28.3101  -11.6620  -31.0981 N   0  0  0  0  0  0  0  0  0  0  0  0
  1  2  2  0
  1  3  1  0
  3  4  1  0
  4  5  1  0
  5  6  1  0
M  END
>  <name>  (13) 
Car Nac Nd0 Car Car Nac

>  <indices>  (13) 
[0, 1, 2]

>  <dummy>  (13) 
1

>  <tasks>  (13) 
probe_placing close_aromatic_ring close_aromatic_ring

>  <current_task>  (13) 
close_aromatic_ring

>  <prot_clashes>  (13) 
0

>  <NBS phar>  (13) 
0.2

>  <NBS_non-phar>  (13) 
0.9181889533996582

>  <NBS>  (13) 
1.1181889533996583

>  <source_stage>  (13) 
scored

>  <source_iter>  (13) 
2

>  <source_parent_mol>  (13) 
1

>  <source_scenario>  (13) 
0 1

>  <source_rank_in_scored_call>  (13) 
0

>  <source_current_task>  (13) 
close_aromatic_ring

>  <rotatable_bond_torsions>  (13) 
1,0,2,3;0,2,3,4

>  <scenario>  (13) 
0 1

>  <reason_to_skip>  (13) 
incorrect arom ring closing

$$$$

     RDKit          3D

  6  5  0  0  0  0  0  0  0  0999 V2000
  -27.8640   -7.4760  -31.1990 C   0  0  0  0  0  0  0  0  0  0  0  0
  -27.5380   -6.7190  -32.2850 N   0  0  0  0  0  0  0  0  0  0  0  0
  -27.6840   -8.8650  -31.2620 N   0  0  0  0  0  0  0  0  0  0  0  0
  -28.0975   -9.2947  -30.0006 C   0  0  0  0  0  0  0  0  0  0  0  0
  -28.3802  -10.8247  -30.1335 C   0  0  0  0  0  0  0  0  0  0  0  0
  -28.8089  -11.6673  -29.1480 N   0  0  0  0  0  0  0  0  0  0  0  0
  1  2  2  0
  1  3  1  0
  3  4  1  0
  4  5  1  0
  5  6  1  0
M  END
>  <name>  (14) 
Car Nac Nd0 Car Car Nd0

>  <indices>  (14) 
[0, 1, 2]

>  <dummy>  (14) 
1

>  <tasks>  (14) 
probe_placing close_aromatic_ring close_aromatic_ring

>  <current_task>  (14) 
close_aromatic_ring

>  <prot_clashes>  (14) 
0

>  <NBS phar>  (14) 
0.2

>  <NBS_non-phar>  (14) 
0.9181889533996582

>  <NBS>  (14) 
1.1181889533996583

>  <source_stage>  (14) 
scored

>  <source_iter>  (14) 
2

>  <source_parent_mol>  (14) 
1

>  <source_scenario>  (14) 
0 1

>  <source_rank_in_scored_call>  (14) 
0

>  <source_current_task>  (14) 
close_aromatic_ring

>  <rotatable_bond_torsions>  (14) 
1,0,2,3;0,2,3,4

>  <scenario>  (14) 
0 1

>  <reason_to_skip>  (14) 
incorrect arom ring closing

$$$$

     RDKit          3D

  6  5  0  0  0  0  0  0  0  0999 V2000
  -27.8640   -7.4760  -31.1990 C   0  0  0  0  0  0  0  0  0  0  0  0
  -27.5380   -6.7190  -32.2850 N   0  0  0  0  0  0  0  0  0  0  0  0
  -27.6840   -8.8650  -31.2620 N   0  0  0  0  0  0  0  0  0  0  0  0
  -28.0975   -9.2947  -30.0006 C   0  0  0  0  0  0  0  0  0  0  0  0
  -28.3802  -10.8247  -30.1335 C   0  0  0  0  0  0  0  0  0  0  0  0
  -28.8013  -11.4011  -28.9106 N   0  0  0  0  0  0  0  0  0  0  0  0
  1  2  2  0
  1  3  1  0
  3  4  1  0
  4  5  1  0
  5  6  1  0
M  END
>  <name>  (15) 
Car Nac Nd0 Car Car Nac

>  <indices>  (15) 
[0, 1, 2]

>  <dummy>  (15) 
1

>  <tasks>  (15) 
probe_placing close_aromatic_ring close_aromatic_ring

>  <current_task>  (15) 
close_aromatic_ring

>  <prot_clashes>  (15) 
0

>  <NBS phar>  (15) 
0.2

>  <NBS_non-phar>  (15) 
0.9181889533996582

>  <NBS>  (15) 
1.1181889533996583

>  <source_stage>  (15) 
scored

>  <source_iter>  (15) 
2

>  <source_parent_mol>  (15) 
1

>  <source_scenario>  (15) 
0 1

>  <source_rank_in_scored_call>  (15) 
0

>  <source_current_task>  (15) 
close_aromatic_ring

>  <rotatable_bond_torsions>  (15) 
1,0,2,3;0,2,3,4

>  <scenario>  (15) 
0 1

>  <reason_to_skip>  (15) 
incorrect arom ring closing

$$$$

     RDKit          3D

  6  5  0  0  0  0  0  0  0  0999 V2000
  -27.8640   -7.4760  -31.1990 C   0  0  0  0  0  0  0  0  0  0  0  0
  -27.5380   -6.7190  -32.2850 N   0  0  0  0  0  0  0  0  0  0  0  0
  -27.6840   -8.8650  -31.2620 N   0  0  0  0  0  0  0  0  0  0  0  0
  -28.0975   -9.2947  -30.0006 C   0  0  0  0  0  0  0  0  0  0  0  0
  -28.3802  -10.8247  -30.1335 C   0  0  0  0  0  0  0  0  0  0  0  0
    0.0000    0.0000    0.0000 O   0  0  0  0  0  0  0  0  0  0  0  0
  1  2  2  0
  1  3  1  0
  3  4  1  0
  4  5  1  0
  5  6  1  0
M  END
>  <name>  (16) 
Car Nac Nd0 Car Car O_a

>  <indices>  (16) 
[0, 1, 2]

>  <dummy>  (16) 
1

>  <tasks>  (16) 
probe_placing close_aromatic_ring close_aromatic_ring

>  <current_task>  (16) 
close_aromatic_ring

>  <prot_clashes>  (16) 
0

>  <NBS phar>  (16) 
0.2

>  <NBS_non-phar>  (16) 
0.9181889533996582

>  <NBS>  (16) 
1.1181889533996583

>  <source_stage>  (16) 
scored

>  <source_iter>  (16) 
2

>  <source_parent_mol>  (16) 
1

>  <source_scenario>  (16) 
0 1

>  <source_rank_in_scored_call>  (16) 
0

>  <source_current_task>  (16) 
close_aromatic_ring

>  <rotatable_bond_torsions>  (16) 
1,0,2,3;0,2,3,4

>  <scenario>  (16) 
0 1

>  <reason_to_skip>  (16) 
some_atom_counter_exceeded

$$$$

     RDKit          3D

  6  5  0  0  0  0  0  0  0  0999 V2000
  -27.8640   -7.4760  -31.1990 C   0  0  0  0  0  0  0  0  0  0  0  0
  -27.5380   -6.7190  -32.2850 N   0  0  0  0  0  0  0  0  0  0  0  0
  -27.6840   -8.8650  -31.2620 N   0  0  0  0  0  0  0  0  0  0  0  0
  -28.0975   -9.2947  -30.0006 C   0  0  0  0  0  0  0  0  0  0  0  0
  -28.3802  -10.8247  -30.1335 C   0  0  0  0  0  0  0  0  0  0  0  0
  -27.3051  -11.5471  -29.5835 C   0  0  0  0  0  0  0  0  0  0  0  0
  1  2  2  0
  1  3  1  0
  3  4  1  0
  4  5  1  0
  5  6  1  0
M  END
>  <name>  (17) 
Car Nac Nd0 Car Car Car

>  <indices>  (17) 
[0, 1, 2]

>  <dummy>  (17) 
1

>  <tasks>  (17) 
probe_placing close_aromatic_ring close_aromatic_ring

>  <current_task>  (17) 
close_aromatic_ring

>  <prot_clashes>  (17) 
0

>  <NBS phar>  (17) 
0.2

>  <NBS_non-phar>  (17) 
0.9181889533996582

>  <NBS>  (17) 
1.1181889533996583

>  <source_stage>  (17) 
scored

>  <source_iter>  (17) 
2

>  <source_parent_mol>  (17) 
1

>  <source_scenario>  (17) 
0 1

>  <source_rank_in_scored_call>  (17) 
0

>  <source_current_task>  (17) 
close_aromatic_ring

>  <rotatable_bond_torsions>  (17) 
1,0,2,3;0,2,3,4

>  <scenario>  (17) 
0 1

>  <reason_to_skip>  (17) 
incorrect arom ring closing

$$$$

     RDKit          3D

  6  5  0  0  0  0  0  0  0  0999 V2000
  -27.8640   -7.4760  -31.1990 C   0  0  0  0  0  0  0  0  0  0  0  0
  -27.5380   -6.7190  -32.2850 N   0  0  0  0  0  0  0  0  0  0  0  0
  -27.6840   -8.8650  -31.2620 N   0  0  0  0  0  0  0  0  0  0  0  0
  -28.0975   -9.2947  -30.0006 C   0  0  0  0  0  0  0  0  0  0  0  0
  -28.3802  -10.8247  -30.1335 C   0  0  0  0  0  0  0  0  0  0  0  0
  -28.2227  -11.5002  -31.1996 N   0  0  0  0  0  0  0  0  0  0  0  0
  1  2  2  0
  1  3  1  0
  3  4  1  0
  4  5  1  0
  5  6  1  0
M  END
>  <name>  (18) 
Car Nac Nd0 Car Car Nd0

>  <indices>  (18) 
[0, 1, 2]

>  <dummy>  (18) 
1

>  <tasks>  (18) 
probe_placing close_aromatic_ring close_aromatic_ring

>  <current_task>  (18) 
close_aromatic_ring

>  <prot_clashes>  (18) 
0

>  <NBS phar>  (18) 
0.2

>  <NBS_non-phar>  (18) 
0.9181889533996582

>  <NBS>  (18) 
1.1181889533996583

>  <source_stage>  (18) 
scored

>  <source_iter>  (18) 
2

>  <source_parent_mol>  (18) 
1

>  <source_scenario>  (18) 
0 1

>  <source_rank_in_scored_call>  (18) 
0

>  <source_current_task>  (18) 
close_aromatic_ring

>  <rotatable_bond_torsions>  (18) 
1,0,2,3;0,2,3,4

>  <scenario>  (18) 
0 1

>  <reason_to_skip>  (18) 
incorrect arom ring closing

$$$$

     RDKit          3D

  6  5  0  0  0  0  0  0  0  0999 V2000
  -27.8640   -7.4760  -31.1990 C   0  0  0  0  0  0  0  0  0  0  0  0
  -27.5380   -6.7190  -32.2850 N   0  0  0  0  0  0  0  0  0  0  0  0
  -27.6840   -8.8650  -31.2620 N   0  0  0  0  0  0  0  0  0  0  0  0
  -28.0975   -9.2947  -30.0006 C   0  0  0  0  0  0  0  0  0  0  0  0
  -28.3802  -10.8247  -30.1335 C   0  0  0  0  0  0  0  0  0  0  0  0
  -28.7750  -11.3409  -28.9442 N   0  0  0  0  0  0  0  0  0  0  0  0
  1  2  2  0
  1  3  1  0
  3  4  1  0
  4  5  1  0
  5  6  1  0
M  END
>  <name>  (19) 
Car Nac Nd0 Car Car Nd0

>  <indices>  (19) 
[0, 1, 2]

>  <dummy>  (19) 
1

>  <tasks>  (19) 
probe_placing close_aromatic_ring close_aromatic_ring

>  <current_task>  (19) 
close_aromatic_ring

>  <prot_clashes>  (19) 
0

>  <NBS phar>  (19) 
0.2

>  <NBS_non-phar>  (19) 
0.9181889533996582

>  <NBS>  (19) 
1.1181889533996583

>  <source_stage>  (19) 
scored

>  <source_iter>  (19) 
2

>  <source_parent_mol>  (19) 
1

>  <source_scenario>  (19) 
0 1

>  <source_rank_in_scored_call>  (19) 
0

>  <source_current_task>  (19) 
close_aromatic_ring

>  <rotatable_bond_torsions>  (19) 
1,0,2,3;0,2,3,4

>  <scenario>  (19) 
0 1

>  <reason_to_skip>  (19) 
incorrect arom ring closing

$$$$

     RDKit          3D

  6  5  0  0  0  0  0  0  0  0999 V2000
  -27.8640   -7.4760  -31.1990 C   0  0  0  0  0  0  0  0  0  0  0  0
  -27.5380   -6.7190  -32.2850 N   0  0  0  0  0  0  0  0  0  0  0  0
  -27.6840   -8.8650  -31.2620 N   0  0  0  0  0  0  0  0  0  0  0  0
  -28.0975   -9.2947  -30.0006 C   0  0  0  0  0  0  0  0  0  0  0  0
  -28.3802  -10.8247  -30.1335 C   0  0  0  0  0  0  0  0  0  0  0  0
    0.0000    0.0000    0.0000 S   0  0  0  0  0  0  0  0  0  0  0  0
  1  2  2  0
  1  3  1  0
  3  4  1  0
  4  5  1  0
  5  6  1  0
M  END
>  <name>  (20) 
Car Nac Nd0 Car Car Sul

>  <indices>  (20) 
[0, 1, 2]

>  <dummy>  (20) 
1

>  <tasks>  (20) 
probe_placing close_aromatic_ring close_aromatic_ring

>  <current_task>  (20) 
close_aromatic_ring

>  <prot_clashes>  (20) 
0

>  <NBS phar>  (20) 
0.2

>  <NBS_non-phar>  (20) 
0.9181889533996582

>  <NBS>  (20) 
1.1181889533996583

>  <source_stage>  (20) 
scored

>  <source_iter>  (20) 
2

>  <source_parent_mol>  (20) 
1

>  <source_scenario>  (20) 
0 1

>  <source_rank_in_scored_call>  (20) 
0

>  <source_current_task>  (20) 
close_aromatic_ring

>  <rotatable_bond_torsions>  (20) 
1,0,2,3;0,2,3,4

>  <scenario>  (20) 
0 1

>  <reason_to_skip>  (20) 
some_atom_counter_exceeded

$$$$

     RDKit          3D

  6  5  0  0  0  0  0  0  0  0999 V2000
  -27.8640   -7.4760  -31.1990 C   0  0  0  0  0  0  0  0  0  0  0  0
  -27.5380   -6.7190  -32.2850 N   0  0  0  0  0  0  0  0  0  0  0  0
  -27.6840   -8.8650  -31.2620 N   0  0  0  0  0  0  0  0  0  0  0  0
  -28.0975   -9.2947  -30.0006 C   0  0  0  0  0  0  0  0  0  0  0  0
  -28.3802  -10.8247  -30.1335 C   0  0  0  0  0  0  0  0  0  0  0  0
  -27.5335  -11.7624  -29.4453 C   0  0  0  0  0  0  0  0  0  0  0  0
  1  2  2  0
  1  3  1  0
  3  4  1  0
  4  5  1  0
  5  6  1  0
M  END
>  <name>  (21) 
Car Nac Nd0 Car Car Car

>  <indices>  (21) 
[0, 1, 2]

>  <dummy>  (21) 
1

>  <tasks>  (21) 
probe_placing close_aromatic_ring close_aromatic_ring

>  <current_task>  (21) 
close_aromatic_ring

>  <prot_clashes>  (21) 
0

>  <NBS phar>  (21) 
0.2

>  <NBS_non-phar>  (21) 
0.9181889533996582

>  <NBS>  (21) 
1.1181889533996583

>  <source_stage>  (21) 
scored

>  <source_iter>  (21) 
2

>  <source_parent_mol>  (21) 
1

>  <source_scenario>  (21) 
0 1

>  <source_rank_in_scored_call>  (21) 
0

>  <source_current_task>  (21) 
close_aromatic_ring

>  <rotatable_bond_torsions>  (21) 
1,0,2,3;0,2,3,4

>  <scenario>  (21) 
0 1

>  <reason_to_skip>  (21) 
incorrect arom ring closing

$$$$

     RDKit          3D

  6  5  0  0  0  0  0  0  0  0999 V2000
  -27.8640   -7.4760  -31.1990 C   0  0  0  0  0  0  0  0  0  0  0  0
  -27.5380   -6.7190  -32.2850 N   0  0  0  0  0  0  0  0  0  0  0  0
  -27.6840   -8.8650  -31.2620 N   0  0  0  0  0  0  0  0  0  0  0  0
  -28.0975   -9.2947  -30.0006 C   0  0  0  0  0  0  0  0  0  0  0  0
  -28.3802  -10.8247  -30.1335 C   0  0  0  0  0  0  0  0  0  0  0  0
  -28.3149  -11.7512  -30.9533 N   0  0  0  0  0  0  0  0  0  0  0  0
  1  2  2  0
  1  3  1  0
  3  4  1  0
  4  5  1  0
  5  6  1  0
M  END
>  <name>  (22) 
Car Nac Nd0 Car Car Nd0

>  <indices>  (22) 
[0, 1, 2]

>  <dummy>  (22) 
1

>  <tasks>  (22) 
probe_placing close_aromatic_ring close_aromatic_ring

>  <current_task>  (22) 
close_aromatic_ring

>  <prot_clashes>  (22) 
0

>  <NBS phar>  (22) 
0.2

>  <NBS_non-phar>  (22) 
0.9181889533996582

>  <NBS>  (22) 
1.1181889533996583

>  <source_stage>  (22) 
scored

>  <source_iter>  (22) 
2

>  <source_parent_mol>  (22) 
1

>  <source_scenario>  (22) 
0 1

>  <source_rank_in_scored_call>  (22) 
0

>  <source_current_task>  (22) 
close_aromatic_ring

>  <rotatable_bond_torsions>  (22) 
1,0,2,3;0,2,3,4

>  <scenario>  (22) 
0 1

>  <reason_to_skip>  (22) 
bad angles

$$$$

     RDKit          3D

  6  5  0  0  0  0  0  0  0  0999 V2000
  -27.8640   -7.4760  -31.1990 C   0  0  0  0  0  0  0  0  0  0  0  0
  -27.5380   -6.7190  -32.2850 N   0  0  0  0  0  0  0  0  0  0  0  0
  -27.6840   -8.8650  -31.2620 N   0  0  0  0  0  0  0  0  0  0  0  0
  -28.0975   -9.2947  -30.0006 C   0  0  0  0  0  0  0  0  0  0  0  0
  -28.3802  -10.8247  -30.1335 C   0  0  0  0  0  0  0  0  0  0  0  0
    0.0000    0.0000    0.0000 O   0  0  0  0  0  0  0  0  0  0  0  0
  1  2  2  0
  1  3  1  0
  3  4  1  0
  4  5  1  0
  5  6  1  0
M  END
>  <name>  (23) 
Car Nac Nd0 Car Car O_a

>  <indices>  (23) 
[0, 1, 2]

>  <dummy>  (23) 
1

>  <tasks>  (23) 
probe_placing close_aromatic_ring close_aromatic_ring

>  <current_task>  (23) 
close_aromatic_ring

>  <prot_clashes>  (23) 
0

>  <NBS phar>  (23) 
0.2

>  <NBS_non-phar>  (23) 
0.9181889533996582

>  <NBS>  (23) 
1.1181889533996583

>  <source_stage>  (23) 
scored

>  <source_iter>  (23) 
2

>  <source_parent_mol>  (23) 
1

>  <source_scenario>  (23) 
0 1

>  <source_rank_in_scored_call>  (23) 
0

>  <source_current_task>  (23) 
close_aromatic_ring

>  <rotatable_bond_torsions>  (23) 
1,0,2,3;0,2,3,4

>  <scenario>  (23) 
0 1

>  <reason_to_skip>  (23) 
some_atom_counter_exceeded

$$$$

     RDKit          3D

  6  5  0  0  0  0  0  0  0  0999 V2000
  -27.8640   -7.4760  -31.1990 C   0  0  0  0  0  0  0  0  0  0  0  0
  -27.5380   -6.7190  -32.2850 N   0  0  0  0  0  0  0  0  0  0  0  0
  -27.6840   -8.8650  -31.2620 N   0  0  0  0  0  0  0  0  0  0  0  0
  -28.0975   -9.2947  -30.0006 C   0  0  0  0  0  0  0  0  0  0  0  0
  -28.3802  -10.8247  -30.1335 C   0  0  0  0  0  0  0  0  0  0  0  0
    0.0000    0.0000    0.0000 S   0  0  0  0  0  0  0  0  0  0  0  0
  1  2  2  0
  1  3  1  0
  3  4  1  0
  4  5  1  0
  5  6  1  0
M  END
>  <name>  (24) 
Car Nac Nd0 Car Car Sul

>  <indices>  (24) 
[0, 1, 2]

>  <dummy>  (24) 
1

>  <tasks>  (24) 
probe_placing close_aromatic_ring close_aromatic_ring

>  <current_task>  (24) 
close_aromatic_ring

>  <prot_clashes>  (24) 
0

>  <NBS phar>  (24) 
0.2

>  <NBS_non-phar>  (24) 
0.9181889533996582

>  <NBS>  (24) 
1.1181889533996583

>  <source_stage>  (24) 
scored

>  <source_iter>  (24) 
2

>  <source_parent_mol>  (24) 
1

>  <source_scenario>  (24) 
0 1

>  <source_rank_in_scored_call>  (24) 
0

>  <source_current_task>  (24) 
close_aromatic_ring

>  <rotatable_bond_torsions>  (24) 
1,0,2,3;0,2,3,4

>  <scenario>  (24) 
0 1

>  <reason_to_skip>  (24) 
some_atom_counter_exceeded

$$$$

     RDKit          3D

  6  5  0  0  0  0  0  0  0  0999 V2000
  -27.8640   -7.4760  -31.1990 C   0  0  0  0  0  0  0  0  0  0  0  0
  -27.5380   -6.7190  -32.2850 N   0  0  0  0  0  0  0  0  0  0  0  0
  -27.6840   -8.8650  -31.2620 N   0  0  0  0  0  0  0  0  0  0  0  0
  -28.0975   -9.2947  -30.0006 C   0  0  0  0  0  0  0  0  0  0  0  0
  -28.3802  -10.8247  -30.1335 C   0  0  0  0  0  0  0  0  0  0  0  0
    0.0000    0.0000    0.0000 S   0  0  0  0  0  0  0  0  0  0  0  0
  1  2  2  0
  1  3  1  0
  3  4  1  0
  4  5  1  0
  5  6  1  0
M  END
>  <name>  (25) 
Car Nac Nd0 Car Car Sul

>  <indices>  (25) 
[0, 1, 2]

>  <dummy>  (25) 
1

>  <tasks>  (25) 
probe_placing close_aromatic_ring close_aromatic_ring

>  <current_task>  (25) 
close_aromatic_ring

>  <prot_clashes>  (25) 
0

>  <NBS phar>  (25) 
0.2

>  <NBS_non-phar>  (25) 
0.9181889533996582

>  <NBS>  (25) 
1.1181889533996583

>  <source_stage>  (25) 
scored

>  <source_iter>  (25) 
2

>  <source_parent_mol>  (25) 
1

>  <source_scenario>  (25) 
0 1

>  <source_rank_in_scored_call>  (25) 
0

>  <source_current_task>  (25) 
close_aromatic_ring

>  <rotatable_bond_torsions>  (25) 
1,0,2,3;0,2,3,4

>  <scenario>  (25) 
0 1

>  <reason_to_skip>  (25) 
some_atom_counter_exceeded

$$$$

     RDKit          3D

  6  5  0  0  0  0  0  0  0  0999 V2000
  -27.8640   -7.4760  -31.1990 C   0  0  0  0  0  0  0  0  0  0  0  0
  -27.5380   -6.7190  -32.2850 N   0  0  0  0  0  0  0  0  0  0  0  0
  -27.6840   -8.8650  -31.2620 N   0  0  0  0  0  0  0  0  0  0  0  0
  -28.0975   -9.2947  -30.0006 C   0  0  0  0  0  0  0  0  0  0  0  0
  -28.3802  -10.8247  -30.1335 C   0  0  0  0  0  0  0  0  0  0  0  0
  -29.6964  -11.1221  -29.8404 C   0  0  0  0  0  0  0  0  0  0  0  0
  1  2  2  0
  1  3  1  0
  3  4  1  0
  4  5  1  0
  5  6  2  0
M  END
>  <name>  (26) 
Car Nac Nd0 Car Car Car

>  <indices>  (26) 
[0, 1, 2]

>  <dummy>  (26) 
1

>  <tasks>  (26) 
probe_placing close_aromatic_ring close_aromatic_ring

>  <current_task>  (26) 
close_aromatic_ring

>  <prot_clashes>  (26) 
0

>  <NBS phar>  (26) 
0.2

>  <NBS_non-phar>  (26) 
0.9181889533996582

>  <NBS>  (26) 
1.1181889533996583

>  <source_stage>  (26) 
scored

>  <source_iter>  (26) 
2

>  <source_parent_mol>  (26) 
1

>  <source_scenario>  (26) 
0 1

>  <source_rank_in_scored_call>  (26) 
0

>  <source_current_task>  (26) 
close_aromatic_ring

>  <rotatable_bond_torsions>  (26) 
1,0,2,3;0,2,3,4

>  <scenario>  (26) 
0 1

>  <reason_to_skip>  (26) 
incorrect arom ring closing

$$$$

     RDKit          3D

  6  5  0  0  0  0  0  0  0  0999 V2000
  -27.8640   -7.4760  -31.1990 C   0  0  0  0  0  0  0  0  0  0  0  0
  -27.5380   -6.7190  -32.2850 N   0  0  0  0  0  0  0  0  0  0  0  0
  -27.6840   -8.8650  -31.2620 N   0  0  0  0  0  0  0  0  0  0  0  0
  -28.0975   -9.2947  -30.0006 C   0  0  0  0  0  0  0  0  0  0  0  0
  -28.3802  -10.8247  -30.1335 C   0  0  0  0  0  0  0  0  0  0  0  0
    0.0000    0.0000    0.0000 S   0  0  0  0  0  0  0  0  0  0  0  0
  1  2  2  0
  1  3  1  0
  3  4  1  0
  4  5  1  0
  5  6  1  0
M  END
>  <name>  (27) 
Car Nac Nd0 Car Car Sul

>  <indices>  (27) 
[0, 1, 2]

>  <dummy>  (27) 
1

>  <tasks>  (27) 
probe_placing close_aromatic_ring close_aromatic_ring

>  <current_task>  (27) 
close_aromatic_ring

>  <prot_clashes>  (27) 
0

>  <NBS phar>  (27) 
0.2

>  <NBS_non-phar>  (27) 
0.9181889533996582

>  <NBS>  (27) 
1.1181889533996583

>  <source_stage>  (27) 
scored

>  <source_iter>  (27) 
2

>  <source_parent_mol>  (27) 
1

>  <source_scenario>  (27) 
0 1

>  <source_rank_in_scored_call>  (27) 
0

>  <source_current_task>  (27) 
close_aromatic_ring

>  <rotatable_bond_torsions>  (27) 
1,0,2,3;0,2,3,4

>  <scenario>  (27) 
0 1

>  <reason_to_skip>  (27) 
some_atom_counter_exceeded

$$$$

     RDKit          3D

  6  5  0  0  0  0  0  0  0  0999 V2000
  -27.8640   -7.4760  -31.1990 C   0  0  0  0  0  0  0  0  0  0  0  0
  -27.5380   -6.7190  -32.2850 N   0  0  0  0  0  0  0  0  0  0  0  0
  -27.6840   -8.8650  -31.2620 N   0  0  0  0  0  0  0  0  0  0  0  0
  -28.0975   -9.2947  -30.0006 C   0  0  0  0  0  0  0  0  0  0  0  0
  -28.3802  -10.8247  -30.1335 C   0  0  0  0  0  0  0  0  0  0  0  0
    0.0000    0.0000    0.0000 O   0  0  0  0  0  0  0  0  0  0  0  0
  1  2  2  0
  1  3  1  0
  3  4  1  0
  4  5  1  0
  5  6  1  0
M  END
>  <name>  (28) 
Car Nac Nd0 Car Car O_a

>  <indices>  (28) 
[0, 1, 2]

>  <dummy>  (28) 
1

>  <tasks>  (28) 
probe_placing close_aromatic_ring close_aromatic_ring

>  <current_task>  (28) 
close_aromatic_ring

>  <prot_clashes>  (28) 
0

>  <NBS phar>  (28) 
0.2

>  <NBS_non-phar>  (28) 
0.9181889533996582

>  <NBS>  (28) 
1.1181889533996583

>  <source_stage>  (28) 
scored

>  <source_iter>  (28) 
2

>  <source_parent_mol>  (28) 
1

>  <source_scenario>  (28) 
0 1

>  <source_rank_in_scored_call>  (28) 
0

>  <source_current_task>  (28) 
close_aromatic_ring

>  <rotatable_bond_torsions>  (28) 
1,0,2,3;0,2,3,4

>  <scenario>  (28) 
0 1

>  <reason_to_skip>  (28) 
some_atom_counter_exceeded

$$$$

     RDKit          3D

  6  5  0  0  0  0  0  0  0  0999 V2000
  -27.8640   -7.4760  -31.1990 C   0  0  0  0  0  0  0  0  0  0  0  0
  -27.5380   -6.7190  -32.2850 N   0  0  0  0  0  0  0  0  0  0  0  0
  -27.6840   -8.8650  -31.2620 N   0  0  0  0  0  0  0  0  0  0  0  0
  -28.0975   -9.2947  -30.0006 C   0  0  0  0  0  0  0  0  0  0  0  0
  -28.3802  -10.8247  -30.1335 C   0  0  0  0  0  0  0  0  0  0  0  0
    0.0000    0.0000    0.0000 S   0  0  0  0  0  0  0  0  0  0  0  0
  1  2  2  0
  1  3  1  0
  3  4  1  0
  4  5  1  0
  5  6  1  0
M  END
>  <name>  (29) 
Car Nac Nd0 Car Car Sul

>  <indices>  (29) 
[0, 1, 2]

>  <dummy>  (29) 
1

>  <tasks>  (29) 
probe_placing close_aromatic_ring close_aromatic_ring

>  <current_task>  (29) 
close_aromatic_ring

>  <prot_clashes>  (29) 
0

>  <NBS phar>  (29) 
0.2

>  <NBS_non-phar>  (29) 
0.9181889533996582

>  <NBS>  (29) 
1.1181889533996583

>  <source_stage>  (29) 
scored

>  <source_iter>  (29) 
2

>  <source_parent_mol>  (29) 
1

>  <source_scenario>  (29) 
0 1

>  <source_rank_in_scored_call>  (29) 
0

>  <source_current_task>  (29) 
close_aromatic_ring

>  <rotatable_bond_torsions>  (29) 
1,0,2,3;0,2,3,4

>  <scenario>  (29) 
0 1

>  <reason_to_skip>  (29) 
some_atom_counter_exceeded

$$$$

     RDKit          3D

  6  5  0  0  0  0  0  0  0  0999 V2000
  -27.8640   -7.4760  -31.1990 C   0  0  0  0  0  0  0  0  0  0  0  0
  -27.5380   -6.7190  -32.2850 N   0  0  0  0  0  0  0  0  0  0  0  0
  -27.6840   -8.8650  -31.2620 N   0  0  0  0  0  0  0  0  0  0  0  0
  -28.0975   -9.2947  -30.0006 C   0  0  0  0  0  0  0  0  0  0  0  0
  -28.3802  -10.8247  -30.1335 C   0  0  0  0  0  0  0  0  0  0  0  0
    0.0000    0.0000    0.0000 S   0  0  0  0  0  0  0  0  0  0  0  0
  1  2  2  0
  1  3  1  0
  3  4  1  0
  4  5  1  0
  5  6  1  0
M  END
>  <name>  (30) 
Car Nac Nd0 Car Car Sul

>  <indices>  (30) 
[0, 1, 2]

>  <dummy>  (30) 
1

>  <tasks>  (30) 
probe_placing close_aromatic_ring close_aromatic_ring

>  <current_task>  (30) 
close_aromatic_ring

>  <prot_clashes>  (30) 
0

>  <NBS phar>  (30) 
0.2

>  <NBS_non-phar>  (30) 
0.9181889533996582

>  <NBS>  (30) 
1.1181889533996583

>  <source_stage>  (30) 
scored

>  <source_iter>  (30) 
2

>  <source_parent_mol>  (30) 
1

>  <source_scenario>  (30) 
0 1

>  <source_rank_in_scored_call>  (30) 
0

>  <source_current_task>  (30) 
close_aromatic_ring

>  <rotatable_bond_torsions>  (30) 
1,0,2,3;0,2,3,4

>  <scenario>  (30) 
0 1

>  <reason_to_skip>  (30) 
some_atom_counter_exceeded

$$$$

     RDKit          3D

  6  5  0  0  0  0  0  0  0  0999 V2000
  -27.8640   -7.4760  -31.1990 C   0  0  0  0  0  0  0  0  0  0  0  0
  -27.5380   -6.7190  -32.2850 N   0  0  0  0  0  0  0  0  0  0  0  0
  -27.6840   -8.8650  -31.2620 N   0  0  0  0  0  0  0  0  0  0  0  0
  -28.0975   -9.2947  -30.0006 C   0  0  0  0  0  0  0  0  0  0  0  0
  -28.3802  -10.8247  -30.1335 C   0  0  0  0  0  0  0  0  0  0  0  0
  -29.6710  -11.2425  -29.7607 C   0  0  0  0  0  0  0  0  0  0  0  0
  1  2  2  0
  1  3  1  0
  3  4  1  0
  4  5  1  0
  5  6  1  0
M  END
>  <name>  (31) 
Car Nac Nd0 Car Car Car

>  <indices>  (31) 
[0, 1, 2]

>  <dummy>  (31) 
1

>  <tasks>  (31) 
probe_placing close_aromatic_ring close_aromatic_ring

>  <current_task>  (31) 
close_aromatic_ring

>  <prot_clashes>  (31) 
0

>  <NBS phar>  (31) 
0.2

>  <NBS_non-phar>  (31) 
0.9181889533996582

>  <NBS>  (31) 
1.1181889533996583

>  <source_stage>  (31) 
scored

>  <source_iter>  (31) 
2

>  <source_parent_mol>  (31) 
1

>  <source_scenario>  (31) 
0 1

>  <source_rank_in_scored_call>  (31) 
0

>  <source_current_task>  (31) 
close_aromatic_ring

>  <rotatable_bond_torsions>  (31) 
1,0,2,3;0,2,3,4

>  <scenario>  (31) 
0 1

>  <reason_to_skip>  (31) 
incorrect arom ring closing

$$$$

     RDKit          3D

  6  5  0  0  0  0  0  0  0  0999 V2000
  -27.8640   -7.4760  -31.1990 C   0  0  0  0  0  0  0  0  0  0  0  0
  -27.5380   -6.7190  -32.2850 N   0  0  0  0  0  0  0  0  0  0  0  0
  -27.6840   -8.8650  -31.2620 N   0  0  0  0  0  0  0  0  0  0  0  0
  -28.0975   -9.2947  -30.0006 C   0  0  0  0  0  0  0  0  0  0  0  0
  -28.3802  -10.8247  -30.1335 C   0  0  0  0  0  0  0  0  0  0  0  0
  -29.8402  -11.2410  -30.3387 C   0  0  0  0  0  0  0  0  0  0  0  0
  1  2  2  0
  1  3  1  0
  3  4  1  0
  4  5  1  0
  5  6  1  0
M  END
>  <name>  (32) 
Car Nac Nd0 Car Car Car

>  <indices>  (32) 
[0, 1, 2]

>  <dummy>  (32) 
1

>  <tasks>  (32) 
probe_placing close_aromatic_ring close_aromatic_ring

>  <current_task>  (32) 
close_aromatic_ring

>  <prot_clashes>  (32) 
0

>  <NBS phar>  (32) 
0.2

>  <NBS_non-phar>  (32) 
0.9181889533996582

>  <NBS>  (32) 
1.1181889533996583

>  <source_stage>  (32) 
scored

>  <source_iter>  (32) 
2

>  <source_parent_mol>  (32) 
1

>  <source_scenario>  (32) 
0 1

>  <source_rank_in_scored_call>  (32) 
0

>  <source_current_task>  (32) 
close_aromatic_ring

>  <rotatable_bond_torsions>  (32) 
1,0,2,3;0,2,3,4

>  <scenario>  (32) 
0 1

>  <reason_to_skip>  (32) 
incorrect arom ring closing

$$$$

     RDKit          3D

  6  5  0  0  0  0  0  0  0  0999 V2000
  -27.8640   -7.4760  -31.1990 C   0  0  0  0  0  0  0  0  0  0  0  0
  -27.5380   -6.7190  -32.2850 N   0  0  0  0  0  0  0  0  0  0  0  0
  -27.6840   -8.8650  -31.2620 N   0  0  0  0  0  0  0  0  0  0  0  0
  -28.0975   -9.2947  -30.0006 C   0  0  0  0  0  0  0  0  0  0  0  0
  -28.3802  -10.8247  -30.1335 C   0  0  0  0  0  0  0  0  0  0  0  0
  -28.1227  -11.1213  -31.4225 N   0  0  0  0  0  0  0  0  0  0  0  0
  1  2  2  0
  1  3  1  0
  3  4  1  0
  4  5  1  0
  5  6  1  0
M  END
>  <name>  (33) 
Car Nac Nd0 Car Car Nac

>  <indices>  (33) 
[0, 1, 2]

>  <dummy>  (33) 
1

>  <tasks>  (33) 
probe_placing close_aromatic_ring close_aromatic_ring

>  <current_task>  (33) 
close_aromatic_ring

>  <prot_clashes>  (33) 
0

>  <NBS phar>  (33) 
0.2

>  <NBS_non-phar>  (33) 
0.9181889533996582

>  <NBS>  (33) 
1.1181889533996583

>  <source_stage>  (33) 
scored

>  <source_iter>  (33) 
2

>  <source_parent_mol>  (33) 
1

>  <source_scenario>  (33) 
0 1

>  <source_rank_in_scored_call>  (33) 
0

>  <source_current_task>  (33) 
close_aromatic_ring

>  <rotatable_bond_torsions>  (33) 
1,0,2,3;0,2,3,4

>  <scenario>  (33) 
0 1

>  <reason_to_skip>  (33) 
subgraph mismatch

$$$$

     RDKit          3D

  6  5  0  0  0  0  0  0  0  0999 V2000
  -27.8640   -7.4760  -31.1990 C   0  0  0  0  0  0  0  0  0  0  0  0
  -27.5380   -6.7190  -32.2850 N   0  0  0  0  0  0  0  0  0  0  0  0
  -27.6840   -8.8650  -31.2620 N   0  0  0  0  0  0  0  0  0  0  0  0
  -28.0975   -9.2947  -30.0006 C   0  0  0  0  0  0  0  0  0  0  0  0
  -28.3802  -10.8247  -30.1335 C   0  0  0  0  0  0  0  0  0  0  0  0
  -28.0902  -11.1196  -31.4350 C   0  0  0  0  0  0  0  0  0  0  0  0
  1  2  2  0
  1  3  1  0
  3  4  1  0
  4  5  1  0
  5  6  1  0
M  END
>  <name>  (34) 
Car Nac Nd0 Car Car Car

>  <indices>  (34) 
[0, 1, 2]

>  <dummy>  (34) 
1

>  <tasks>  (34) 
probe_placing close_aromatic_ring close_aromatic_ring

>  <current_task>  (34) 
close_aromatic_ring

>  <prot_clashes>  (34) 
0

>  <NBS phar>  (34) 
0.2

>  <NBS_non-phar>  (34) 
0.9181889533996582

>  <NBS>  (34) 
1.1181889533996583

>  <source_stage>  (34) 
scored

>  <source_iter>  (34) 
2

>  <source_parent_mol>  (34) 
1

>  <source_scenario>  (34) 
0 1

>  <source_rank_in_scored_call>  (34) 
0

>  <source_current_task>  (34) 
close_aromatic_ring

>  <rotatable_bond_torsions>  (34) 
1,0,2,3;0,2,3,4

>  <scenario>  (34) 
0 1

>  <reason_to_skip>  (34) 
subgraph mismatch

$$$$

     RDKit          3D

  6  5  0  0  0  0  0  0  0  0999 V2000
  -27.8640   -7.4760  -31.1990 C   0  0  0  0  0  0  0  0  0  0  0  0
  -27.5380   -6.7190  -32.2850 N   0  0  0  0  0  0  0  0  0  0  0  0
  -27.6840   -8.8650  -31.2620 N   0  0  0  0  0  0  0  0  0  0  0  0
  -28.0975   -9.2947  -30.0006 C   0  0  0  0  0  0  0  0  0  0  0  0
  -28.1036  -10.8191  -29.9560 C   0  0  0  0  0  0  0  0  0  0  0  0
  -28.4606  -11.4538  -28.5991 C   0  0  0  0  0  0  0  0  0  0  0  0
  1  2  2  0
  1  3  1  0
  3  4  1  0
  4  5  2  3
  5  6  1  0
M  END
>  <name>  (1) 
Car Nac Nd0 Car Car Car

>  <indices>  (1) 
[0, 1, 2]

>  <dummy>  (1) 
1

>  <tasks>  (1) 
probe_placing close_aromatic_ring close_aromatic_ring

>  <current_task>  (1) 
close_aromatic_ring

>  <prot_clashes>  (1) 
0

>  <NBS phar>  (1) 
0.2

>  <NBS_non-phar>  (1) 
0.8892837524414062

>  <NBS>  (1) 
1.0892837524414063

>  <source_stage>  (1) 
scored

>  <source_iter>  (1) 
2

>  <source_parent_mol>  (1) 
1

>  <source_scenario>  (1) 
0 1

>  <source_rank_in_scored_call>  (1) 
1

>  <source_current_task>  (1) 
close_aromatic_ring

>  <rotatable_bond_torsions>  (1) 
1,0,2,3;0,2,3,4

>  <scenario>  (1) 
0 1

>  <reason_to_skip>  (1) 
incorrect arom ring closing

$$$$

     RDKit          3D

  6  5  0  0  0  0  0  0  0  0999 V2000
  -27.8640   -7.4760  -31.1990 C   0  0  0  0  0  0  0  0  0  0  0  0
  -27.5380   -6.7190  -32.2850 N   0  0  0  0  0  0  0  0  0  0  0  0
  -27.6840   -8.8650  -31.2620 N   0  0  0  0  0  0  0  0  0  0  0  0
  -28.0975   -9.2947  -30.0006 C   0  0  0  0  0  0  0  0  0  0  0  0
  -28.1036  -10.8191  -29.9560 C   0  0  0  0  0  0  0  0  0  0  0  0
  -27.8379  -11.8527  -30.7339 N   0  0  0  0  0  0  0  0  0  0  0  0
  1  2  2  0
  1  3  1  0
  3  4  1  0
  4  5  2  3
  5  6  1  0
M  END
>  <name>  (2) 
Car Nac Nd0 Car Car Nac

>  <indices>  (2) 
[0, 1, 2]

>  <dummy>  (2) 
1

>  <tasks>  (2) 
probe_placing close_aromatic_ring close_aromatic_ring

>  <current_task>  (2) 
close_aromatic_ring

>  <prot_clashes>  (2) 
0

>  <NBS phar>  (2) 
0.2

>  <NBS_non-phar>  (2) 
0.8892837524414062

>  <NBS>  (2) 
1.0892837524414063

>  <source_stage>  (2) 
scored

>  <source_iter>  (2) 
2

>  <source_parent_mol>  (2) 
1

>  <source_scenario>  (2) 
0 1

>  <source_rank_in_scored_call>  (2) 
1

>  <source_current_task>  (2) 
close_aromatic_ring

>  <rotatable_bond_torsions>  (2) 
1,0,2,3;0,2,3,4

>  <scenario>  (2) 
0 1

>  <reason_to_skip>  (2) 
bad angles

$$$$

     RDKit          3D

  6  5  0  0  0  0  0  0  0  0999 V2000
  -27.8640   -7.4760  -31.1990 C   0  0  0  0  0  0  0  0  0  0  0  0
  -27.5380   -6.7190  -32.2850 N   0  0  0  0  0  0  0  0  0  0  0  0
  -27.6840   -8.8650  -31.2620 N   0  0  0  0  0  0  0  0  0  0  0  0
  -28.0975   -9.2947  -30.0006 C   0  0  0  0  0  0  0  0  0  0  0  0
  -28.1036  -10.8191  -29.9560 C   0  0  0  0  0  0  0  0  0  0  0  0
  -28.5130  -10.9769  -28.5932 N   0  0  0  0  0  0  0  0  0  0  0  0
  1  2  2  0
  1  3  1  0
  3  4  1  0
  4  5  2  3
  5  6  1  0
M  END
>  <name>  (3) 
Car Nac Nd0 Car Car Nac

>  <indices>  (3) 
[0, 1, 2]

>  <dummy>  (3) 
1

>  <tasks>  (3) 
probe_placing close_aromatic_ring close_aromatic_ring

>  <current_task>  (3) 
close_aromatic_ring

>  <prot_clashes>  (3) 
0

>  <NBS phar>  (3) 
0.2

>  <NBS_non-phar>  (3) 
0.8892837524414062

>  <NBS>  (3) 
1.0892837524414063

>  <source_stage>  (3) 
scored

>  <source_iter>  (3) 
2

>  <source_parent_mol>  (3) 
1

>  <source_scenario>  (3) 
0 1

>  <source_rank_in_scored_call>  (3) 
1

>  <source_current_task>  (3) 
close_aromatic_ring

>  <rotatable_bond_torsions>  (3) 
1,0,2,3;0,2,3,4

>  <scenario>  (3) 
0 1

>  <reason_to_skip>  (3) 
bad angles

$$$$

     RDKit          3D

  6  5  0  0  0  0  0  0  0  0999 V2000
  -27.8640   -7.4760  -31.1990 C   0  0  0  0  0  0  0  0  0  0  0  0
  -27.5380   -6.7190  -32.2850 N   0  0  0  0  0  0  0  0  0  0  0  0
  -27.6840   -8.8650  -31.2620 N   0  0  0  0  0  0  0  0  0  0  0  0
  -28.0975   -9.2947  -30.0006 C   0  0  0  0  0  0  0  0  0  0  0  0
  -28.1036  -10.8191  -29.9560 C   0  0  0  0  0  0  0  0  0  0  0  0
  -27.7943  -11.9001  -30.7828 C   0  0  0  0  0  0  0  0  0  0  0  0
  1  2  2  0
  1  3  1  0
  3  4  1  0
  4  5  2  3
  5  6  1  0
M  END
>  <name>  (4) 
Car Nac Nd0 Car Car Car

>  <indices>  (4) 
[0, 1, 2]

>  <dummy>  (4) 
1

>  <tasks>  (4) 
probe_placing close_aromatic_ring close_aromatic_ring

>  <current_task>  (4) 
close_aromatic_ring

>  <prot_clashes>  (4) 
0

>  <NBS phar>  (4) 
0.2

>  <NBS_non-phar>  (4) 
0.8892837524414062

>  <NBS>  (4) 
1.0892837524414063

>  <source_stage>  (4) 
scored

>  <source_iter>  (4) 
2

>  <source_parent_mol>  (4) 
1

>  <source_scenario>  (4) 
0 1

>  <source_rank_in_scored_call>  (4) 
1

>  <source_current_task>  (4) 
close_aromatic_ring

>  <rotatable_bond_torsions>  (4) 
1,0,2,3;0,2,3,4

>  <scenario>  (4) 
0 1

>  <reason_to_skip>  (4) 
bad angles

$$$$

     RDKit          3D

  6  5  0  0  0  0  0  0  0  0999 V2000
  -27.8640   -7.4760  -31.1990 C   0  0  0  0  0  0  0  0  0  0  0  0
  -27.5380   -6.7190  -32.2850 N   0  0  0  0  0  0  0  0  0  0  0  0
  -27.6840   -8.8650  -31.2620 N   0  0  0  0  0  0  0  0  0  0  0  0
  -28.0975   -9.2947  -30.0006 C   0  0  0  0  0  0  0  0  0  0  0  0
  -28.1036  -10.8191  -29.9560 C   0  0  0  0  0  0  0  0  0  0  0  0
  -28.5349  -11.3200  -28.6816 C   0  0  0  0  0  0  0  0  0  0  0  0
  1  2  2  0
  1  3  1  0
  3  4  1  0
  4  5  2  3
  5  6  1  0
M  END
>  <name>  (5) 
Car Nac Nd0 Car Car Car

>  <indices>  (5) 
[0, 1, 2]

>  <dummy>  (5) 
1

>  <tasks>  (5) 
probe_placing close_aromatic_ring close_aromatic_ring

>  <current_task>  (5) 
close_aromatic_ring

>  <prot_clashes>  (5) 
0

>  <NBS phar>  (5) 
0.2

>  <NBS_non-phar>  (5) 
0.8892837524414062

>  <NBS>  (5) 
1.0892837524414063

>  <source_stage>  (5) 
scored

>  <source_iter>  (5) 
2

>  <source_parent_mol>  (5) 
1

>  <source_scenario>  (5) 
0 1

>  <source_rank_in_scored_call>  (5) 
1

>  <source_current_task>  (5) 
close_aromatic_ring

>  <rotatable_bond_torsions>  (5) 
1,0,2,3;0,2,3,4

>  <scenario>  (5) 
0 1

>  <reason_to_skip>  (5) 
incorrect arom ring closing

$$$$

     RDKit          3D

  6  5  0  0  0  0  0  0  0  0999 V2000
  -27.8640   -7.4760  -31.1990 C   0  0  0  0  0  0  0  0  0  0  0  0
  -27.5380   -6.7190  -32.2850 N   0  0  0  0  0  0  0  0  0  0  0  0
  -27.6840   -8.8650  -31.2620 N   0  0  0  0  0  0  0  0  0  0  0  0
  -28.0975   -9.2947  -30.0006 C   0  0  0  0  0  0  0  0  0  0  0  0
  -28.1036  -10.8191  -29.9560 C   0  0  0  0  0  0  0  0  0  0  0  0
  -27.7904  -11.6991  -30.8927 C   0  0  0  0  0  0  0  0  0  0  0  0
  1  2  2  0
  1  3  1  0
  3  4  1  0
  4  5  2  3
  5  6  1  0
M  END
>  <name>  (6) 
Car Nac Nd0 Car Car Car

>  <indices>  (6) 
[0, 1, 2]

>  <dummy>  (6) 
1

>  <tasks>  (6) 
probe_placing close_aromatic_ring close_aromatic_ring

>  <current_task>  (6) 
close_aromatic_ring

>  <prot_clashes>  (6) 
0

>  <NBS phar>  (6) 
0.2

>  <NBS_non-phar>  (6) 
0.8892837524414062

>  <NBS>  (6) 
1.0892837524414063

>  <source_stage>  (6) 
scored

>  <source_iter>  (6) 
2

>  <source_parent_mol>  (6) 
1

>  <source_scenario>  (6) 
0 1

>  <source_rank_in_scored_call>  (6) 
1

>  <source_current_task>  (6) 
close_aromatic_ring

>  <rotatable_bond_torsions>  (6) 
1,0,2,3;0,2,3,4

>  <scenario>  (6) 
0 1

>  <reason_to_skip>  (6) 
incorrect arom ring closing

$$$$

     RDKit          3D

  6  5  0  0  0  0  0  0  0  0999 V2000
  -27.8640   -7.4760  -31.1990 C   0  0  0  0  0  0  0  0  0  0  0  0
  -27.5380   -6.7190  -32.2850 N   0  0  0  0  0  0  0  0  0  0  0  0
  -27.6840   -8.8650  -31.2620 N   0  0  0  0  0  0  0  0  0  0  0  0
  -28.0975   -9.2947  -30.0006 C   0  0  0  0  0  0  0  0  0  0  0  0
  -28.1036  -10.8191  -29.9560 C   0  0  0  0  0  0  0  0  0  0  0  0
    0.0000    0.0000    0.0000 O   0  0  0  0  0  0  0  0  0  0  0  0
  1  2  2  0
  1  3  1  0
  3  4  1  0
  4  5  2  3
  5  6  1  0
M  END
>  <name>  (7) 
Car Nac Nd0 Car Car O_a

>  <indices>  (7) 
[0, 1, 2]

>  <dummy>  (7) 
1

>  <tasks>  (7) 
probe_placing close_aromatic_ring close_aromatic_ring

>  <current_task>  (7) 
close_aromatic_ring

>  <prot_clashes>  (7) 
0

>  <NBS phar>  (7) 
0.2

>  <NBS_non-phar>  (7) 
0.8892837524414062

>  <NBS>  (7) 
1.0892837524414063

>  <source_stage>  (7) 
scored

>  <source_iter>  (7) 
2

>  <source_parent_mol>  (7) 
1

>  <source_scenario>  (7) 
0 1

>  <source_rank_in_scored_call>  (7) 
1

>  <source_current_task>  (7) 
close_aromatic_ring

>  <rotatable_bond_torsions>  (7) 
1,0,2,3;0,2,3,4

>  <scenario>  (7) 
0 1

>  <reason_to_skip>  (7) 
some_atom_counter_exceeded

$$$$

     RDKit          3D

  6  5  0  0  0  0  0  0  0  0999 V2000
  -27.8640   -7.4760  -31.1990 C   0  0  0  0  0  0  0  0  0  0  0  0
  -27.5380   -6.7190  -32.2850 N   0  0  0  0  0  0  0  0  0  0  0  0
  -27.6840   -8.8650  -31.2620 N   0  0  0  0  0  0  0  0  0  0  0  0
  -28.0975   -9.2947  -30.0006 C   0  0  0  0  0  0  0  0  0  0  0  0
  -28.1036  -10.8191  -29.9560 C   0  0  0  0  0  0  0  0  0  0  0  0
  -27.8119  -11.7232  -30.8391 N   0  0  0  0  0  0  0  0  0  0  0  0
  1  2  2  0
  1  3  1  0
  3  4  1  0
  4  5  2  3
  5  6  1  0
M  END
>  <name>  (8) 
Car Nac Nd0 Car Car Nac

>  <indices>  (8) 
[0, 1, 2]

>  <dummy>  (8) 
1

>  <tasks>  (8) 
probe_placing close_aromatic_ring close_aromatic_ring

>  <current_task>  (8) 
close_aromatic_ring

>  <prot_clashes>  (8) 
0

>  <NBS phar>  (8) 
0.2

>  <NBS_non-phar>  (8) 
0.8892837524414062

>  <NBS>  (8) 
1.0892837524414063

>  <source_stage>  (8) 
scored

>  <source_iter>  (8) 
2

>  <source_parent_mol>  (8) 
1

>  <source_scenario>  (8) 
0 1

>  <source_rank_in_scored_call>  (8) 
1

>  <source_current_task>  (8) 
close_aromatic_ring

>  <rotatable_bond_torsions>  (8) 
1,0,2,3;0,2,3,4

>  <scenario>  (8) 
0 1

>  <reason_to_skip>  (8) 
incorrect arom ring closing

$$$$

     RDKit          3D

  6  5  0  0  0  0  0  0  0  0999 V2000
  -27.8640   -7.4760  -31.1990 C   0  0  0  0  0  0  0  0  0  0  0  0
  -27.5380   -6.7190  -32.2850 N   0  0  0  0  0  0  0  0  0  0  0  0
  -27.6840   -8.8650  -31.2620 N   0  0  0  0  0  0  0  0  0  0  0  0
  -28.0975   -9.2947  -30.0006 C   0  0  0  0  0  0  0  0  0  0  0  0
  -28.1036  -10.8191  -29.9560 C   0  0  0  0  0  0  0  0  0  0  0  0
  -28.4380  -11.6398  -28.9295 N   0  0  0  0  0  0  0  0  0  0  0  0
  1  2  2  0
  1  3  1  0
  3  4  1  0
  4  5  2  3
  5  6  1  0
M  END
>  <name>  (9) 
Car Nac Nd0 Car Car Nd0

>  <indices>  (9) 
[0, 1, 2]

>  <dummy>  (9) 
1

>  <tasks>  (9) 
probe_placing close_aromatic_ring close_aromatic_ring

>  <current_task>  (9) 
close_aromatic_ring

>  <prot_clashes>  (9) 
0

>  <NBS phar>  (9) 
0.2

>  <NBS_non-phar>  (9) 
0.8892837524414062

>  <NBS>  (9) 
1.0892837524414063

>  <source_stage>  (9) 
scored

>  <source_iter>  (9) 
2

>  <source_parent_mol>  (9) 
1

>  <source_scenario>  (9) 
0 1

>  <source_rank_in_scored_call>  (9) 
1

>  <source_current_task>  (9) 
close_aromatic_ring

>  <rotatable_bond_torsions>  (9) 
1,0,2,3;0,2,3,4

>  <scenario>  (9) 
0 1

>  <reason_to_skip>  (9) 
incorrect arom ring closing

$$$$

     RDKit          3D

  6  5  0  0  0  0  0  0  0  0999 V2000
  -27.8640   -7.4760  -31.1990 C   0  0  0  0  0  0  0  0  0  0  0  0
  -27.5380   -6.7190  -32.2850 N   0  0  0  0  0  0  0  0  0  0  0  0
  -27.6840   -8.8650  -31.2620 N   0  0  0  0  0  0  0  0  0  0  0  0
  -28.0975   -9.2947  -30.0006 C   0  0  0  0  0  0  0  0  0  0  0  0
  -28.1036  -10.8191  -29.9560 C   0  0  0  0  0  0  0  0  0  0  0  0
  -28.4952  -11.3551  -28.7201 N   0  0  0  0  0  0  0  0  0  0  0  0
  1  2  2  0
  1  3  1  0
  3  4  1  0
  4  5  2  3
  5  6  1  0
M  END
>  <name>  (10) 
Car Nac Nd0 Car Car Nac

>  <indices>  (10) 
[0, 1, 2]

>  <dummy>  (10) 
1

>  <tasks>  (10) 
probe_placing close_aromatic_ring close_aromatic_ring

>  <current_task>  (10) 
close_aromatic_ring

>  <prot_clashes>  (10) 
0

>  <NBS phar>  (10) 
0.2

>  <NBS_non-phar>  (10) 
0.8892837524414062

>  <NBS>  (10) 
1.0892837524414063

>  <source_stage>  (10) 
scored

>  <source_iter>  (10) 
2

>  <source_parent_mol>  (10) 
1

>  <source_scenario>  (10) 
0 1

>  <source_rank_in_scored_call>  (10) 
1

>  <source_current_task>  (10) 
close_aromatic_ring

>  <rotatable_bond_torsions>  (10) 
1,0,2,3;0,2,3,4

>  <scenario>  (10) 
0 1

>  <reason_to_skip>  (10) 
incorrect arom ring closing

$$$$

     RDKit          3D

  6  5  0  0  0  0  0  0  0  0999 V2000
  -27.8640   -7.4760  -31.1990 C   0  0  0  0  0  0  0  0  0  0  0  0
  -27.5380   -6.7190  -32.2850 N   0  0  0  0  0  0  0  0  0  0  0  0
  -27.6840   -8.8650  -31.2620 N   0  0  0  0  0  0  0  0  0  0  0  0
  -28.0975   -9.2947  -30.0006 C   0  0  0  0  0  0  0  0  0  0  0  0
  -28.1036  -10.8191  -29.9560 C   0  0  0  0  0  0  0  0  0  0  0  0
    0.0000    0.0000    0.0000 O   0  0  0  0  0  0  0  0  0  0  0  0
  1  2  2  0
  1  3  1  0
  3  4  1  0
  4  5  2  3
  5  6  1  0
M  END
>  <name>  (11) 
Car Nac Nd0 Car Car O_a

>  <indices>  (11) 
[0, 1, 2]

>  <dummy>  (11) 
1

>  <tasks>  (11) 
probe_placing close_aromatic_ring close_aromatic_ring

>  <current_task>  (11) 
close_aromatic_ring

>  <prot_clashes>  (11) 
0

>  <NBS phar>  (11) 
0.2

>  <NBS_non-phar>  (11) 
0.8892837524414062

>  <NBS>  (11) 
1.0892837524414063

>  <source_stage>  (11) 
scored

>  <source_iter>  (11) 
2

>  <source_parent_mol>  (11) 
1

>  <source_scenario>  (11) 
0 1

>  <source_rank_in_scored_call>  (11) 
1

>  <source_current_task>  (11) 
close_aromatic_ring

>  <rotatable_bond_torsions>  (11) 
1,0,2,3;0,2,3,4

>  <scenario>  (11) 
0 1

>  <reason_to_skip>  (11) 
some_atom_counter_exceeded

$$$$

     RDKit          3D

  6  5  0  0  0  0  0  0  0  0999 V2000
  -27.8640   -7.4760  -31.1990 C   0  0  0  0  0  0  0  0  0  0  0  0
  -27.5380   -6.7190  -32.2850 N   0  0  0  0  0  0  0  0  0  0  0  0
  -27.6840   -8.8650  -31.2620 N   0  0  0  0  0  0  0  0  0  0  0  0
  -28.0975   -9.2947  -30.0006 C   0  0  0  0  0  0  0  0  0  0  0  0
  -28.1036  -10.8191  -29.9560 C   0  0  0  0  0  0  0  0  0  0  0  0
  -26.9528  -11.2850  -29.2953 C   0  0  0  0  0  0  0  0  0  0  0  0
  1  2  2  0
  1  3  1  0
  3  4  1  0
  4  5  2  3
  5  6  1  0
M  END
>  <name>  (12) 
Car Nac Nd0 Car Car Car

>  <indices>  (12) 
[0, 1, 2]

>  <dummy>  (12) 
1

>  <tasks>  (12) 
probe_placing close_aromatic_ring close_aromatic_ring

>  <current_task>  (12) 
close_aromatic_ring

>  <prot_clashes>  (12) 
0

>  <NBS phar>  (12) 
0.2

>  <NBS_non-phar>  (12) 
0.8892837524414062

>  <NBS>  (12) 
1.0892837524414063

>  <source_stage>  (12) 
scored

>  <source_iter>  (12) 
2

>  <source_parent_mol>  (12) 
1

>  <source_scenario>  (12) 
0 1

>  <source_rank_in_scored_call>  (12) 
1

>  <source_current_task>  (12) 
close_aromatic_ring

>  <rotatable_bond_torsions>  (12) 
1,0,2,3;0,2,3,4

>  <scenario>  (12) 
0 1

>  <reason_to_skip>  (12) 
incorrect arom ring closing

$$$$

     RDKit          3D

  6  5  0  0  0  0  0  0  0  0999 V2000
  -27.8640   -7.4760  -31.1990 C   0  0  0  0  0  0  0  0  0  0  0  0
  -27.5380   -6.7190  -32.2850 N   0  0  0  0  0  0  0  0  0  0  0  0
  -27.6840   -8.8650  -31.2620 N   0  0  0  0  0  0  0  0  0  0  0  0
  -28.0975   -9.2947  -30.0006 C   0  0  0  0  0  0  0  0  0  0  0  0
  -28.1036  -10.8191  -29.9560 C   0  0  0  0  0  0  0  0  0  0  0  0
  -27.7477  -11.5580  -30.9527 N   0  0  0  0  0  0  0  0  0  0  0  0
  1  2  2  0
  1  3  1  0
  3  4  1  0
  4  5  2  3
  5  6  1  0
M  END
>  <name>  (13) 
Car Nac Nd0 Car Car Nd0

>  <indices>  (13) 
[0, 1, 2]

>  <dummy>  (13) 
1

>  <tasks>  (13) 
probe_placing close_aromatic_ring close_aromatic_ring

>  <current_task>  (13) 
close_aromatic_ring

>  <prot_clashes>  (13) 
0

>  <NBS phar>  (13) 
0.2

>  <NBS_non-phar>  (13) 
0.8892837524414062

>  <NBS>  (13) 
1.0892837524414063

>  <source_stage>  (13) 
scored

>  <source_iter>  (13) 
2

>  <source_parent_mol>  (13) 
1

>  <source_scenario>  (13) 
0 1

>  <source_rank_in_scored_call>  (13) 
1

>  <source_current_task>  (13) 
close_aromatic_ring

>  <rotatable_bond_torsions>  (13) 
1,0,2,3;0,2,3,4

>  <scenario>  (13) 
0 1

>  <reason_to_skip>  (13) 
incorrect arom ring closing

$$$$

     RDKit          3D

  6  5  0  0  0  0  0  0  0  0999 V2000
  -27.8640   -7.4760  -31.1990 C   0  0  0  0  0  0  0  0  0  0  0  0
  -27.5380   -6.7190  -32.2850 N   0  0  0  0  0  0  0  0  0  0  0  0
  -27.6840   -8.8650  -31.2620 N   0  0  0  0  0  0  0  0  0  0  0  0
  -28.0975   -9.2947  -30.0006 C   0  0  0  0  0  0  0  0  0  0  0  0
  -28.1036  -10.8191  -29.9560 C   0  0  0  0  0  0  0  0  0  0  0  0
  -28.4774  -11.2957  -28.7595 N   0  0  0  0  0  0  0  0  0  0  0  0
  1  2  2  0
  1  3  1  0
  3  4  1  0
  4  5  2  3
  5  6  1  0
M  END
>  <name>  (14) 
Car Nac Nd0 Car Car Nd0

>  <indices>  (14) 
[0, 1, 2]

>  <dummy>  (14) 
1

>  <tasks>  (14) 
probe_placing close_aromatic_ring close_aromatic_ring

>  <current_task>  (14) 
close_aromatic_ring

>  <prot_clashes>  (14) 
0

>  <NBS phar>  (14) 
0.2

>  <NBS_non-phar>  (14) 
0.8892837524414062

>  <NBS>  (14) 
1.0892837524414063

>  <source_stage>  (14) 
scored

>  <source_iter>  (14) 
2

>  <source_parent_mol>  (14) 
1

>  <source_scenario>  (14) 
0 1

>  <source_rank_in_scored_call>  (14) 
1

>  <source_current_task>  (14) 
close_aromatic_ring

>  <rotatable_bond_torsions>  (14) 
1,0,2,3;0,2,3,4

>  <scenario>  (14) 
0 1

>  <reason_to_skip>  (14) 
incorrect arom ring closing

$$$$

     RDKit          3D

  6  5  0  0  0  0  0  0  0  0999 V2000
  -27.8640   -7.4760  -31.1990 C   0  0  0  0  0  0  0  0  0  0  0  0
  -27.5380   -6.7190  -32.2850 N   0  0  0  0  0  0  0  0  0  0  0  0
  -27.6840   -8.8650  -31.2620 N   0  0  0  0  0  0  0  0  0  0  0  0
  -28.0975   -9.2947  -30.0006 C   0  0  0  0  0  0  0  0  0  0  0  0
  -28.1036  -10.8191  -29.9560 C   0  0  0  0  0  0  0  0  0  0  0  0
    0.0000    0.0000    0.0000 S   0  0  0  0  0  0  0  0  0  0  0  0
  1  2  2  0
  1  3  1  0
  3  4  1  0
  4  5  2  3
  5  6  1  0
M  END
>  <name>  (15) 
Car Nac Nd0 Car Car Sul

>  <indices>  (15) 
[0, 1, 2]

>  <dummy>  (15) 
1

>  <tasks>  (15) 
probe_placing close_aromatic_ring close_aromatic_ring

>  <current_task>  (15) 
close_aromatic_ring

>  <prot_clashes>  (15) 
0

>  <NBS phar>  (15) 
0.2

>  <NBS_non-phar>  (15) 
0.8892837524414062

>  <NBS>  (15) 
1.0892837524414063

>  <source_stage>  (15) 
scored

>  <source_iter>  (15) 
2

>  <source_parent_mol>  (15) 
1

>  <source_scenario>  (15) 
0 1

>  <source_rank_in_scored_call>  (15) 
1

>  <source_current_task>  (15) 
close_aromatic_ring

>  <rotatable_bond_torsions>  (15) 
1,0,2,3;0,2,3,4

>  <scenario>  (15) 
0 1

>  <reason_to_skip>  (15) 
some_atom_counter_exceeded

$$$$

     RDKit          3D

  6  5  0  0  0  0  0  0  0  0999 V2000
  -27.8640   -7.4760  -31.1990 C   0  0  0  0  0  0  0  0  0  0  0  0
  -27.5380   -6.7190  -32.2850 N   0  0  0  0  0  0  0  0  0  0  0  0
  -27.6840   -8.8650  -31.2620 N   0  0  0  0  0  0  0  0  0  0  0  0
  -28.0975   -9.2947  -30.0006 C   0  0  0  0  0  0  0  0  0  0  0  0
  -28.1036  -10.8191  -29.9560 C   0  0  0  0  0  0  0  0  0  0  0  0
  -27.1490  -11.5240  -29.1457 C   0  0  0  0  0  0  0  0  0  0  0  0
  1  2  2  0
  1  3  1  0
  3  4  1  0
  4  5  2  3
  5  6  1  0
M  END
>  <name>  (16) 
Car Nac Nd0 Car Car Car

>  <indices>  (16) 
[0, 1, 2]

>  <dummy>  (16) 
1

>  <tasks>  (16) 
probe_placing close_aromatic_ring close_aromatic_ring

>  <current_task>  (16) 
close_aromatic_ring

>  <prot_clashes>  (16) 
0

>  <NBS phar>  (16) 
0.2

>  <NBS_non-phar>  (16) 
0.8892837524414062

>  <NBS>  (16) 
1.0892837524414063

>  <source_stage>  (16) 
scored

>  <source_iter>  (16) 
2

>  <source_parent_mol>  (16) 
1

>  <source_scenario>  (16) 
0 1

>  <source_rank_in_scored_call>  (16) 
1

>  <source_current_task>  (16) 
close_aromatic_ring

>  <rotatable_bond_torsions>  (16) 
1,0,2,3;0,2,3,4

>  <scenario>  (16) 
0 1

>  <reason_to_skip>  (16) 
incorrect arom ring closing

$$$$

     RDKit          3D

  6  5  0  0  0  0  0  0  0  0999 V2000
  -27.8640   -7.4760  -31.1990 C   0  0  0  0  0  0  0  0  0  0  0  0
  -27.5380   -6.7190  -32.2850 N   0  0  0  0  0  0  0  0  0  0  0  0
  -27.6840   -8.8650  -31.2620 N   0  0  0  0  0  0  0  0  0  0  0  0
  -28.0975   -9.2947  -30.0006 C   0  0  0  0  0  0  0  0  0  0  0  0
  -28.1036  -10.8191  -29.9560 C   0  0  0  0  0  0  0  0  0  0  0  0
  -27.8114  -11.7980  -30.6850 N   0  0  0  0  0  0  0  0  0  0  0  0
  1  2  2  0
  1  3  1  0
  3  4  1  0
  4  5  2  3
  5  6  1  0
M  END
>  <name>  (17) 
Car Nac Nd0 Car Car Nd0

>  <indices>  (17) 
[0, 1, 2]

>  <dummy>  (17) 
1

>  <tasks>  (17) 
probe_placing close_aromatic_ring close_aromatic_ring

>  <current_task>  (17) 
close_aromatic_ring

>  <prot_clashes>  (17) 
0

>  <NBS phar>  (17) 
0.2

>  <NBS_non-phar>  (17) 
0.8892837524414062

>  <NBS>  (17) 
1.0892837524414063

>  <source_stage>  (17) 
scored

>  <source_iter>  (17) 
2

>  <source_parent_mol>  (17) 
1

>  <source_scenario>  (17) 
0 1

>  <source_rank_in_scored_call>  (17) 
1

>  <source_current_task>  (17) 
close_aromatic_ring

>  <rotatable_bond_torsions>  (17) 
1,0,2,3;0,2,3,4

>  <scenario>  (17) 
0 1

>  <reason_to_skip>  (17) 
bad angles

$$$$

     RDKit          3D

  6  5  0  0  0  0  0  0  0  0999 V2000
  -27.8640   -7.4760  -31.1990 C   0  0  0  0  0  0  0  0  0  0  0  0
  -27.5380   -6.7190  -32.2850 N   0  0  0  0  0  0  0  0  0  0  0  0
  -27.6840   -8.8650  -31.2620 N   0  0  0  0  0  0  0  0  0  0  0  0
  -28.0975   -9.2947  -30.0006 C   0  0  0  0  0  0  0  0  0  0  0  0
  -28.1036  -10.8191  -29.9560 C   0  0  0  0  0  0  0  0  0  0  0  0
    0.0000    0.0000    0.0000 O   0  0  0  0  0  0  0  0  0  0  0  0
  1  2  2  0
  1  3  1  0
  3  4  1  0
  4  5  2  3
  5  6  1  0
M  END
>  <name>  (18) 
Car Nac Nd0 Car Car O_a

>  <indices>  (18) 
[0, 1, 2]

>  <dummy>  (18) 
1

>  <tasks>  (18) 
probe_placing close_aromatic_ring close_aromatic_ring

>  <current_task>  (18) 
close_aromatic_ring

>  <prot_clashes>  (18) 
0

>  <NBS phar>  (18) 
0.2

>  <NBS_non-phar>  (18) 
0.8892837524414062

>  <NBS>  (18) 
1.0892837524414063

>  <source_stage>  (18) 
scored

>  <source_iter>  (18) 
2

>  <source_parent_mol>  (18) 
1

>  <source_scenario>  (18) 
0 1

>  <source_rank_in_scored_call>  (18) 
1

>  <source_current_task>  (18) 
close_aromatic_ring

>  <rotatable_bond_torsions>  (18) 
1,0,2,3;0,2,3,4

>  <scenario>  (18) 
0 1

>  <reason_to_skip>  (18) 
some_atom_counter_exceeded

$$$$

     RDKit          3D

  6  5  0  0  0  0  0  0  0  0999 V2000
  -27.8640   -7.4760  -31.1990 C   0  0  0  0  0  0  0  0  0  0  0  0
  -27.5380   -6.7190  -32.2850 N   0  0  0  0  0  0  0  0  0  0  0  0
  -27.6840   -8.8650  -31.2620 N   0  0  0  0  0  0  0  0  0  0  0  0
  -28.0975   -9.2947  -30.0006 C   0  0  0  0  0  0  0  0  0  0  0  0
  -28.1036  -10.8191  -29.9560 C   0  0  0  0  0  0  0  0  0  0  0  0
    0.0000    0.0000    0.0000 S   0  0  0  0  0  0  0  0  0  0  0  0
  1  2  2  0
  1  3  1  0
  3  4  1  0
  4  5  2  3
  5  6  1  0
M  END
>  <name>  (19) 
Car Nac Nd0 Car Car Sul

>  <indices>  (19) 
[0, 1, 2]

>  <dummy>  (19) 
1

>  <tasks>  (19) 
probe_placing close_aromatic_ring close_aromatic_ring

>  <current_task>  (19) 
close_aromatic_ring

>  <prot_clashes>  (19) 
0

>  <NBS phar>  (19) 
0.2

>  <NBS_non-phar>  (19) 
0.8892837524414062

>  <NBS>  (19) 
1.0892837524414063

>  <source_stage>  (19) 
scored

>  <source_iter>  (19) 
2

>  <source_parent_mol>  (19) 
1

>  <source_scenario>  (19) 
0 1

>  <source_rank_in_scored_call>  (19) 
1

>  <source_current_task>  (19) 
close_aromatic_ring

>  <rotatable_bond_torsions>  (19) 
1,0,2,3;0,2,3,4

>  <scenario>  (19) 
0 1

>  <reason_to_skip>  (19) 
some_atom_counter_exceeded

$$$$

     RDKit          3D

  6  5  0  0  0  0  0  0  0  0999 V2000
  -27.8640   -7.4760  -31.1990 C   0  0  0  0  0  0  0  0  0  0  0  0
  -27.5380   -6.7190  -32.2850 N   0  0  0  0  0  0  0  0  0  0  0  0
  -27.6840   -8.8650  -31.2620 N   0  0  0  0  0  0  0  0  0  0  0  0
  -28.0975   -9.2947  -30.0006 C   0  0  0  0  0  0  0  0  0  0  0  0
  -28.1036  -10.8191  -29.9560 C   0  0  0  0  0  0  0  0  0  0  0  0
    0.0000    0.0000    0.0000 S   0  0  0  0  0  0  0  0  0  0  0  0
  1  2  2  0
  1  3  1  0
  3  4  1  0
  4  5  2  3
  5  6  1  0
M  END
>  <name>  (20) 
Car Nac Nd0 Car Car Sul

>  <indices>  (20) 
[0, 1, 2]

>  <dummy>  (20) 
1

>  <tasks>  (20) 
probe_placing close_aromatic_ring close_aromatic_ring

>  <current_task>  (20) 
close_aromatic_ring

>  <prot_clashes>  (20) 
0

>  <NBS phar>  (20) 
0.2

>  <NBS_non-phar>  (20) 
0.8892837524414062

>  <NBS>  (20) 
1.0892837524414063

>  <source_stage>  (20) 
scored

>  <source_iter>  (20) 
2

>  <source_parent_mol>  (20) 
1

>  <source_scenario>  (20) 
0 1

>  <source_rank_in_scored_call>  (20) 
1

>  <source_current_task>  (20) 
close_aromatic_ring

>  <rotatable_bond_torsions>  (20) 
1,0,2,3;0,2,3,4

>  <scenario>  (20) 
0 1

>  <reason_to_skip>  (20) 
some_atom_counter_exceeded

$$$$

     RDKit          3D

  6  5  0  0  0  0  0  0  0  0999 V2000
  -27.8640   -7.4760  -31.1990 C   0  0  0  0  0  0  0  0  0  0  0  0
  -27.5380   -6.7190  -32.2850 N   0  0  0  0  0  0  0  0  0  0  0  0
  -27.6840   -8.8650  -31.2620 N   0  0  0  0  0  0  0  0  0  0  0  0
  -28.0975   -9.2947  -30.0006 C   0  0  0  0  0  0  0  0  0  0  0  0
  -28.1036  -10.8191  -29.9560 C   0  0  0  0  0  0  0  0  0  0  0  0
    0.0000    0.0000    0.0000 S   0  0  0  0  0  0  0  0  0  0  0  0
  1  2  2  0
  1  3  1  0
  3  4  1  0
  4  5  2  3
  5  6  1  0
M  END
>  <name>  (21) 
Car Nac Nd0 Car Car Sul

>  <indices>  (21) 
[0, 1, 2]

>  <dummy>  (21) 
1

>  <tasks>  (21) 
probe_placing close_aromatic_ring close_aromatic_ring

>  <current_task>  (21) 
close_aromatic_ring

>  <prot_clashes>  (21) 
0

>  <NBS phar>  (21) 
0.2

>  <NBS_non-phar>  (21) 
0.8892837524414062

>  <NBS>  (21) 
1.0892837524414063

>  <source_stage>  (21) 
scored

>  <source_iter>  (21) 
2

>  <source_parent_mol>  (21) 
1

>  <source_scenario>  (21) 
0 1

>  <source_rank_in_scored_call>  (21) 
1

>  <source_current_task>  (21) 
close_aromatic_ring

>  <rotatable_bond_torsions>  (21) 
1,0,2,3;0,2,3,4

>  <scenario>  (21) 
0 1

>  <reason_to_skip>  (21) 
some_atom_counter_exceeded

$$$$

     RDKit          3D

  6  5  0  0  0  0  0  0  0  0999 V2000
  -27.8640   -7.4760  -31.1990 C   0  0  0  0  0  0  0  0  0  0  0  0
  -27.5380   -6.7190  -32.2850 N   0  0  0  0  0  0  0  0  0  0  0  0
  -27.6840   -8.8650  -31.2620 N   0  0  0  0  0  0  0  0  0  0  0  0
  -28.0975   -9.2947  -30.0006 C   0  0  0  0  0  0  0  0  0  0  0  0
  -28.1036  -10.8191  -29.9560 C   0  0  0  0  0  0  0  0  0  0  0  0
    0.0000    0.0000    0.0000 O   0  0  0  0  0  0  0  0  0  0  0  0
  1  2  2  0
  1  3  1  0
  3  4  1  0
  4  5  2  3
  5  6  1  0
M  END
>  <name>  (22) 
Car Nac Nd0 Car Car O_a

>  <indices>  (22) 
[0, 1, 2]

>  <dummy>  (22) 
1

>  <tasks>  (22) 
probe_placing close_aromatic_ring close_aromatic_ring

>  <current_task>  (22) 
close_aromatic_ring

>  <prot_clashes>  (22) 
0

>  <NBS phar>  (22) 
0.2

>  <NBS_non-phar>  (22) 
0.8892837524414062

>  <NBS>  (22) 
1.0892837524414063

>  <source_stage>  (22) 
scored

>  <source_iter>  (22) 
2

>  <source_parent_mol>  (22) 
1

>  <source_scenario>  (22) 
0 1

>  <source_rank_in_scored_call>  (22) 
1

>  <source_current_task>  (22) 
close_aromatic_ring

>  <rotatable_bond_torsions>  (22) 
1,0,2,3;0,2,3,4

>  <scenario>  (22) 
0 1

>  <reason_to_skip>  (22) 
some_atom_counter_exceeded

$$$$

     RDKit          3D

  6  5  0  0  0  0  0  0  0  0999 V2000
  -27.8640   -7.4760  -31.1990 C   0  0  0  0  0  0  0  0  0  0  0  0
  -27.5380   -6.7190  -32.2850 N   0  0  0  0  0  0  0  0  0  0  0  0
  -27.6840   -8.8650  -31.2620 N   0  0  0  0  0  0  0  0  0  0  0  0
  -28.0975   -9.2947  -30.0006 C   0  0  0  0  0  0  0  0  0  0  0  0
  -28.1036  -10.8191  -29.9560 C   0  0  0  0  0  0  0  0  0  0  0  0
    0.0000    0.0000    0.0000 S   0  0  0  0  0  0  0  0  0  0  0  0
  1  2  2  0
  1  3  1  0
  3  4  1  0
  4  5  2  3
  5  6  1  0
M  END
>  <name>  (23) 
Car Nac Nd0 Car Car Sul

>  <indices>  (23) 
[0, 1, 2]

>  <dummy>  (23) 
1

>  <tasks>  (23) 
probe_placing close_aromatic_ring close_aromatic_ring

>  <current_task>  (23) 
close_aromatic_ring

>  <prot_clashes>  (23) 
0

>  <NBS phar>  (23) 
0.2

>  <NBS_non-phar>  (23) 
0.8892837524414062

>  <NBS>  (23) 
1.0892837524414063

>  <source_stage>  (23) 
scored

>  <source_iter>  (23) 
2

>  <source_parent_mol>  (23) 
1

>  <source_scenario>  (23) 
0 1

>  <source_rank_in_scored_call>  (23) 
1

>  <source_current_task>  (23) 
close_aromatic_ring

>  <rotatable_bond_torsions>  (23) 
1,0,2,3;0,2,3,4

>  <scenario>  (23) 
0 1

>  <reason_to_skip>  (23) 
some_atom_counter_exceeded

$$$$

     RDKit          3D

  6  5  0  0  0  0  0  0  0  0999 V2000
  -27.8640   -7.4760  -31.1990 C   0  0  0  0  0  0  0  0  0  0  0  0
  -27.5380   -6.7190  -32.2850 N   0  0  0  0  0  0  0  0  0  0  0  0
  -27.6840   -8.8650  -31.2620 N   0  0  0  0  0  0  0  0  0  0  0  0
  -28.0975   -9.2947  -30.0006 C   0  0  0  0  0  0  0  0  0  0  0  0
  -28.1036  -10.8191  -29.9560 C   0  0  0  0  0  0  0  0  0  0  0  0
    0.0000    0.0000    0.0000 S   0  0  0  0  0  0  0  0  0  0  0  0
  1  2  2  0
  1  3  1  0
  3  4  1  0
  4  5  2  3
  5  6  1  0
M  END
>  <name>  (24) 
Car Nac Nd0 Car Car Sul

>  <indices>  (24) 
[0, 1, 2]

>  <dummy>  (24) 
1

>  <tasks>  (24) 
probe_placing close_aromatic_ring close_aromatic_ring

>  <current_task>  (24) 
close_aromatic_ring

>  <prot_clashes>  (24) 
0

>  <NBS phar>  (24) 
0.2

>  <NBS_non-phar>  (24) 
0.8892837524414062

>  <NBS>  (24) 
1.0892837524414063

>  <source_stage>  (24) 
scored

>  <source_iter>  (24) 
2

>  <source_parent_mol>  (24) 
1

>  <source_scenario>  (24) 
0 1

>  <source_rank_in_scored_call>  (24) 
1

>  <source_current_task>  (24) 
close_aromatic_ring

>  <rotatable_bond_torsions>  (24) 
1,0,2,3;0,2,3,4

>  <scenario>  (24) 
0 1

>  <reason_to_skip>  (24) 
some_atom_counter_exceeded

$$$$

     RDKit          3D

  6  5  0  0  0  0  0  0  0  0999 V2000
  -27.8640   -7.4760  -31.1990 C   0  0  0  0  0  0  0  0  0  0  0  0
  -27.5380   -6.7190  -32.2850 N   0  0  0  0  0  0  0  0  0  0  0  0
  -27.6840   -8.8650  -31.2620 N   0  0  0  0  0  0  0  0  0  0  0  0
  -28.0975   -9.2947  -30.0006 C   0  0  0  0  0  0  0  0  0  0  0  0
  -28.1036  -10.8191  -29.9560 C   0  0  0  0  0  0  0  0  0  0  0  0
  -29.3170  -11.4389  -29.6262 C   0  0  0  0  0  0  0  0  0  0  0  0
  1  2  2  0
  1  3  1  0
  3  4  1  0
  4  5  2  3
  5  6  1  0
M  END
>  <name>  (25) 
Car Nac Nd0 Car Car Car

>  <indices>  (25) 
[0, 1, 2]

>  <dummy>  (25) 
1

>  <tasks>  (25) 
probe_placing close_aromatic_ring close_aromatic_ring

>  <current_task>  (25) 
close_aromatic_ring

>  <prot_clashes>  (25) 
0

>  <NBS phar>  (25) 
0.2

>  <NBS_non-phar>  (25) 
0.8892837524414062

>  <NBS>  (25) 
1.0892837524414063

>  <source_stage>  (25) 
scored

>  <source_iter>  (25) 
2

>  <source_parent_mol>  (25) 
1

>  <source_scenario>  (25) 
0 1

>  <source_rank_in_scored_call>  (25) 
1

>  <source_current_task>  (25) 
close_aromatic_ring

>  <rotatable_bond_torsions>  (25) 
1,0,2,3;0,2,3,4

>  <scenario>  (25) 
0 1

>  <reason_to_skip>  (25) 
incorrect arom ring closing

$$$$

     RDKit          3D

  6  5  0  0  0  0  0  0  0  0999 V2000
  -27.8640   -7.4760  -31.1990 C   0  0  0  0  0  0  0  0  0  0  0  0
  -27.5380   -6.7190  -32.2850 N   0  0  0  0  0  0  0  0  0  0  0  0
  -27.6840   -8.8650  -31.2620 N   0  0  0  0  0  0  0  0  0  0  0  0
  -28.0975   -9.2947  -30.0006 C   0  0  0  0  0  0  0  0  0  0  0  0
  -28.1036  -10.8191  -29.9560 C   0  0  0  0  0  0  0  0  0  0  0  0
  -29.4418  -11.5232  -30.2112 C   0  0  0  0  0  0  0  0  0  0  0  0
  1  2  2  0
  1  3  1  0
  3  4  1  0
  4  5  2  3
  5  6  1  0
M  END
>  <name>  (26) 
Car Nac Nd0 Car Car Car

>  <indices>  (26) 
[0, 1, 2]

>  <dummy>  (26) 
1

>  <tasks>  (26) 
probe_placing close_aromatic_ring close_aromatic_ring

>  <current_task>  (26) 
close_aromatic_ring

>  <prot_clashes>  (26) 
0

>  <NBS phar>  (26) 
0.2

>  <NBS_non-phar>  (26) 
0.8892837524414062

>  <NBS>  (26) 
1.0892837524414063

>  <source_stage>  (26) 
scored

>  <source_iter>  (26) 
2

>  <source_parent_mol>  (26) 
1

>  <source_scenario>  (26) 
0 1

>  <source_rank_in_scored_call>  (26) 
1

>  <source_current_task>  (26) 
close_aromatic_ring

>  <rotatable_bond_torsions>  (26) 
1,0,2,3;0,2,3,4

>  <scenario>  (26) 
0 1

>  <reason_to_skip>  (26) 
incorrect arom ring closing

$$$$

     RDKit          3D

  6  5  0  0  0  0  0  0  0  0999 V2000
  -27.8640   -7.4760  -31.1990 C   0  0  0  0  0  0  0  0  0  0  0  0
  -27.5380   -6.7190  -32.2850 N   0  0  0  0  0  0  0  0  0  0  0  0
  -27.6840   -8.8650  -31.2620 N   0  0  0  0  0  0  0  0  0  0  0  0
  -28.0975   -9.2947  -30.0006 C   0  0  0  0  0  0  0  0  0  0  0  0
  -28.1036  -10.8191  -29.9560 C   0  0  0  0  0  0  0  0  0  0  0  0
  -27.7009  -11.1890  -31.2093 N   0  0  0  0  0  0  0  0  0  0  0  0
  1  2  2  0
  1  3  1  0
  3  4  1  0
  4  5  2  3
  5  6  1  0
M  END
>  <name>  (27) 
Car Nac Nd0 Car Car Nac

>  <indices>  (27) 
[0, 1, 2]

>  <dummy>  (27) 
1

>  <tasks>  (27) 
probe_placing close_aromatic_ring close_aromatic_ring

>  <current_task>  (27) 
close_aromatic_ring

>  <prot_clashes>  (27) 
0

>  <NBS phar>  (27) 
0.2

>  <NBS_non-phar>  (27) 
0.8892837524414062

>  <NBS>  (27) 
1.0892837524414063

>  <source_stage>  (27) 
scored

>  <source_iter>  (27) 
2

>  <source_parent_mol>  (27) 
1

>  <source_scenario>  (27) 
0 1

>  <source_rank_in_scored_call>  (27) 
1

>  <source_current_task>  (27) 
close_aromatic_ring

>  <rotatable_bond_torsions>  (27) 
1,0,2,3;0,2,3,4

>  <scenario>  (27) 
0 1

>  <reason_to_skip>  (27) 
subgraph mismatch

$$$$

     RDKit          3D

  6  5  0  0  0  0  0  0  0  0999 V2000
  -27.8640   -7.4760  -31.1990 C   0  0  0  0  0  0  0  0  0  0  0  0
  -27.5380   -6.7190  -32.2850 N   0  0  0  0  0  0  0  0  0  0  0  0
  -27.6840   -8.8650  -31.2620 N   0  0  0  0  0  0  0  0  0  0  0  0
  -28.0975   -9.2947  -30.0006 C   0  0  0  0  0  0  0  0  0  0  0  0
  -28.1036  -10.8191  -29.9560 C   0  0  0  0  0  0  0  0  0  0  0  0
  -27.6685  -11.1826  -31.2199 C   0  0  0  0  0  0  0  0  0  0  0  0
  1  2  2  0
  1  3  1  0
  3  4  1  0
  4  5  2  3
  5  6  1  0
M  END
>  <name>  (28) 
Car Nac Nd0 Car Car Car

>  <indices>  (28) 
[0, 1, 2]

>  <dummy>  (28) 
1

>  <tasks>  (28) 
probe_placing close_aromatic_ring close_aromatic_ring

>  <current_task>  (28) 
close_aromatic_ring

>  <prot_clashes>  (28) 
0

>  <NBS phar>  (28) 
0.2

>  <NBS_non-phar>  (28) 
0.8892837524414062

>  <NBS>  (28) 
1.0892837524414063

>  <source_stage>  (28) 
scored

>  <source_iter>  (28) 
2

>  <source_parent_mol>  (28) 
1

>  <source_scenario>  (28) 
0 1

>  <source_rank_in_scored_call>  (28) 
1

>  <source_current_task>  (28) 
close_aromatic_ring

>  <rotatable_bond_torsions>  (28) 
1,0,2,3;0,2,3,4

>  <scenario>  (28) 
0 1

>  <reason_to_skip>  (28) 
subgraph mismatch

$$$$

     RDKit          3D

  6  5  0  0  0  0  0  0  0  0999 V2000
  -27.8640   -7.4760  -31.1990 C   0  0  0  0  0  0  0  0  0  0  0  0
  -27.5380   -6.7190  -32.2850 N   0  0  0  0  0  0  0  0  0  0  0  0
  -27.6840   -8.8650  -31.2620 N   0  0  0  0  0  0  0  0  0  0  0  0
  -28.0975   -9.2947  -30.0006 C   0  0  0  0  0  0  0  0  0  0  0  0
  -28.5014   -8.2952  -29.1740 C   0  0  0  0  0  0  0  0  0  0  0  0
  -29.0711   -8.6467  -27.7476 C   0  0  0  0  0  0  0  0  0  0  0  0
  1  2  2  0
  1  3  1  0
  3  4  1  0
  4  5  2  3
  5  6  1  0
M  END
>  <name>  (1) 
Car Nac Nd0 Car Car Car

>  <indices>  (1) 
[0, 1, 2]

>  <dummy>  (1) 
1

>  <tasks>  (1) 
probe_placing close_aromatic_ring close_aromatic_ring

>  <current_task>  (1) 
close_aromatic_ring

>  <prot_clashes>  (1) 
0

>  <NBS phar>  (1) 
0.2

>  <NBS_non-phar>  (1) 
0.8807449340820312

>  <NBS>  (1) 
1.0807449340820312

>  <source_stage>  (1) 
scored

>  <source_iter>  (1) 
2

>  <source_parent_mol>  (1) 
1

>  <source_scenario>  (1) 
0 1

>  <source_rank_in_scored_call>  (1) 
2

>  <source_current_task>  (1) 
close_aromatic_ring

>  <rotatable_bond_torsions>  (1) 
1,0,2,3;0,2,3,4

>  <scenario>  (1) 
0 1

>  <reason_to_skip>  (1) 
incorrect arom ring closing

$$$$

     RDKit          3D

  6  5  0  0  0  0  0  0  0  0999 V2000
  -27.8640   -7.4760  -31.1990 C   0  0  0  0  0  0  0  0  0  0  0  0
  -27.5380   -6.7190  -32.2850 N   0  0  0  0  0  0  0  0  0  0  0  0
  -27.6840   -8.8650  -31.2620 N   0  0  0  0  0  0  0  0  0  0  0  0
  -28.0975   -9.2947  -30.0006 C   0  0  0  0  0  0  0  0  0  0  0  0
  -28.5014   -8.2952  -29.1740 C   0  0  0  0  0  0  0  0  0  0  0  0
  -28.6595   -6.9200  -29.1409 N   0  0  0  0  0  0  0  0  0  0  0  0
  1  2  2  0
  1  3  1  0
  3  4  1  0
  4  5  2  3
  5  6  1  0
M  END
>  <name>  (2) 
Car Nac Nd0 Car Car Nac

>  <indices>  (2) 
[0, 1, 2]

>  <dummy>  (2) 
1

>  <tasks>  (2) 
probe_placing close_aromatic_ring close_aromatic_ring

>  <current_task>  (2) 
close_aromatic_ring

>  <prot_clashes>  (2) 
0

>  <NBS phar>  (2) 
0.2

>  <NBS_non-phar>  (2) 
0.8807449340820312

>  <NBS>  (2) 
1.0807449340820312

>  <source_stage>  (2) 
scored

>  <source_iter>  (2) 
2

>  <source_parent_mol>  (2) 
1

>  <source_scenario>  (2) 
0 1

>  <source_rank_in_scored_call>  (2) 
2

>  <source_current_task>  (2) 
close_aromatic_ring

>  <rotatable_bond_torsions>  (2) 
1,0,2,3;0,2,3,4

>  <scenario>  (2) 
0 1

>  <reason_to_skip>  (2) 
bad angles

$$$$

     RDKit          3D

  6  5  0  0  0  0  0  0  0  0999 V2000
  -27.8640   -7.4760  -31.1990 C   0  0  0  0  0  0  0  0  0  0  0  0
  -27.5380   -6.7190  -32.2850 N   0  0  0  0  0  0  0  0  0  0  0  0
  -27.6840   -8.8650  -31.2620 N   0  0  0  0  0  0  0  0  0  0  0  0
  -28.0975   -9.2947  -30.0006 C   0  0  0  0  0  0  0  0  0  0  0  0
  -28.5014   -8.2952  -29.1740 C   0  0  0  0  0  0  0  0  0  0  0  0
  -28.8949   -9.0253  -27.9909 N   0  0  0  0  0  0  0  0  0  0  0  0
  1  2  2  0
  1  3  1  0
  3  4  1  0
  4  5  2  3
  5  6  1  0
M  END
>  <name>  (3) 
Car Nac Nd0 Car Car Nac

>  <indices>  (3) 
[0, 1, 2]

>  <dummy>  (3) 
1

>  <tasks>  (3) 
probe_placing close_aromatic_ring close_aromatic_ring

>  <current_task>  (3) 
close_aromatic_ring

>  <prot_clashes>  (3) 
0

>  <NBS phar>  (3) 
0.2

>  <NBS_non-phar>  (3) 
0.8807449340820312

>  <NBS>  (3) 
1.0807449340820312

>  <source_stage>  (3) 
scored

>  <source_iter>  (3) 
2

>  <source_parent_mol>  (3) 
1

>  <source_scenario>  (3) 
0 1

>  <source_rank_in_scored_call>  (3) 
2

>  <source_current_task>  (3) 
close_aromatic_ring

>  <rotatable_bond_torsions>  (3) 
1,0,2,3;0,2,3,4

>  <scenario>  (3) 
0 1

>  <reason_to_skip>  (3) 
incorrect arom ring closing

$$$$

     RDKit          3D

  6  5  0  0  0  0  0  0  0  0999 V2000
  -27.8640   -7.4760  -31.1990 C   0  0  0  0  0  0  0  0  0  0  0  0
  -27.5380   -6.7190  -32.2850 N   0  0  0  0  0  0  0  0  0  0  0  0
  -27.6840   -8.8650  -31.2620 N   0  0  0  0  0  0  0  0  0  0  0  0
  -28.0975   -9.2947  -30.0006 C   0  0  0  0  0  0  0  0  0  0  0  0
  -28.5014   -8.2952  -29.1740 C   0  0  0  0  0  0  0  0  0  0  0  0
  -28.6855   -6.8484  -29.1659 C   0  0  0  0  0  0  0  0  0  0  0  0
  1  2  2  0
  1  3  1  0
  3  4  1  0
  4  5  2  3
  5  6  1  0
M  END
>  <name>  (4) 
Car Nac Nd0 Car Car Car

>  <indices>  (4) 
[0, 1, 2]

>  <dummy>  (4) 
1

>  <tasks>  (4) 
probe_placing close_aromatic_ring close_aromatic_ring

>  <current_task>  (4) 
close_aromatic_ring

>  <prot_clashes>  (4) 
0

>  <NBS phar>  (4) 
0.2

>  <NBS_non-phar>  (4) 
0.8807449340820312

>  <NBS>  (4) 
1.0807449340820312

>  <source_stage>  (4) 
scored

>  <source_iter>  (4) 
2

>  <source_parent_mol>  (4) 
1

>  <source_scenario>  (4) 
0 1

>  <source_rank_in_scored_call>  (4) 
2

>  <source_current_task>  (4) 
close_aromatic_ring

>  <rotatable_bond_torsions>  (4) 
1,0,2,3;0,2,3,4

>  <scenario>  (4) 
0 1

>  <reason_to_skip>  (4) 
bad angles

$$$$

     RDKit          3D

  6  5  0  0  0  0  0  0  0  0999 V2000
  -27.8640   -7.4760  -31.1990 C   0  0  0  0  0  0  0  0  0  0  0  0
  -27.5380   -6.7190  -32.2850 N   0  0  0  0  0  0  0  0  0  0  0  0
  -27.6840   -8.8650  -31.2620 N   0  0  0  0  0  0  0  0  0  0  0  0
  -28.0975   -9.2947  -30.0006 C   0  0  0  0  0  0  0  0  0  0  0  0
  -28.5014   -8.2952  -29.1740 C   0  0  0  0  0  0  0  0  0  0  0  0
  -28.9316   -8.7044  -27.8335 C   0  0  0  0  0  0  0  0  0  0  0  0
  1  2  2  0
  1  3  1  0
  3  4  1  0
  4  5  2  3
  5  6  1  0
M  END
>  <name>  (5) 
Car Nac Nd0 Car Car Car

>  <indices>  (5) 
[0, 1, 2]

>  <dummy>  (5) 
1

>  <tasks>  (5) 
probe_placing close_aromatic_ring close_aromatic_ring

>  <current_task>  (5) 
close_aromatic_ring

>  <prot_clashes>  (5) 
0

>  <NBS phar>  (5) 
0.2

>  <NBS_non-phar>  (5) 
0.8807449340820312

>  <NBS>  (5) 
1.0807449340820312

>  <source_stage>  (5) 
scored

>  <source_iter>  (5) 
2

>  <source_parent_mol>  (5) 
1

>  <source_scenario>  (5) 
0 1

>  <source_rank_in_scored_call>  (5) 
2

>  <source_current_task>  (5) 
close_aromatic_ring

>  <rotatable_bond_torsions>  (5) 
1,0,2,3;0,2,3,4

>  <scenario>  (5) 
0 1

>  <reason_to_skip>  (5) 
incorrect arom ring closing

$$$$

     RDKit          3D

  6  5  0  0  0  0  0  0  0  0999 V2000
  -27.8640   -7.4760  -31.1990 C   0  0  0  0  0  0  0  0  0  0  0  0
  -27.5380   -6.7190  -32.2850 N   0  0  0  0  0  0  0  0  0  0  0  0
  -27.6840   -8.8650  -31.2620 N   0  0  0  0  0  0  0  0  0  0  0  0
  -28.0975   -9.2947  -30.0006 C   0  0  0  0  0  0  0  0  0  0  0  0
  -28.5014   -8.2952  -29.1740 C   0  0  0  0  0  0  0  0  0  0  0  0
    0.0000    0.0000    0.0000 O   0  0  0  0  0  0  0  0  0  0  0  0
  1  2  2  0
  1  3  1  0
  3  4  1  0
  4  5  2  3
  5  6  1  0
M  END
>  <name>  (6) 
Car Nac Nd0 Car Car O_a

>  <indices>  (6) 
[0, 1, 2]

>  <dummy>  (6) 
1

>  <tasks>  (6) 
probe_placing close_aromatic_ring close_aromatic_ring

>  <current_task>  (6) 
close_aromatic_ring

>  <prot_clashes>  (6) 
0

>  <NBS phar>  (6) 
0.2

>  <NBS_non-phar>  (6) 
0.8807449340820312

>  <NBS>  (6) 
1.0807449340820312

>  <source_stage>  (6) 
scored

>  <source_iter>  (6) 
2

>  <source_parent_mol>  (6) 
1

>  <source_scenario>  (6) 
0 1

>  <source_rank_in_scored_call>  (6) 
2

>  <source_current_task>  (6) 
close_aromatic_ring

>  <rotatable_bond_torsions>  (6) 
1,0,2,3;0,2,3,4

>  <scenario>  (6) 
0 1

>  <reason_to_skip>  (6) 
some_atom_counter_exceeded

$$$$

     RDKit          3D

  6  5  0  0  0  0  0  0  0  0999 V2000
  -27.8640   -7.4760  -31.1990 C   0  0  0  0  0  0  0  0  0  0  0  0
  -27.5380   -6.7190  -32.2850 N   0  0  0  0  0  0  0  0  0  0  0  0
  -27.6840   -8.8650  -31.2620 N   0  0  0  0  0  0  0  0  0  0  0  0
  -28.0975   -9.2947  -30.0006 C   0  0  0  0  0  0  0  0  0  0  0  0
  -28.5014   -8.2952  -29.1740 C   0  0  0  0  0  0  0  0  0  0  0  0
  -28.9816   -8.2878  -27.8520 N   0  0  0  0  0  0  0  0  0  0  0  0
  1  2  2  0
  1  3  1  0
  3  4  1  0
  4  5  2  3
  5  6  1  0
M  END
>  <name>  (7) 
Car Nac Nd0 Car Car Nd0

>  <indices>  (7) 
[0, 1, 2]

>  <dummy>  (7) 
1

>  <tasks>  (7) 
probe_placing close_aromatic_ring close_aromatic_ring

>  <current_task>  (7) 
close_aromatic_ring

>  <prot_clashes>  (7) 
0

>  <NBS phar>  (7) 
0.2

>  <NBS_non-phar>  (7) 
0.8807449340820312

>  <NBS>  (7) 
1.0807449340820312

>  <source_stage>  (7) 
scored

>  <source_iter>  (7) 
2

>  <source_parent_mol>  (7) 
1

>  <source_scenario>  (7) 
0 1

>  <source_rank_in_scored_call>  (7) 
2

>  <source_current_task>  (7) 
close_aromatic_ring

>  <rotatable_bond_torsions>  (7) 
1,0,2,3;0,2,3,4

>  <scenario>  (7) 
0 1

>  <reason_to_skip>  (7) 
incorrect arom ring closing

$$$$

     RDKit          3D

  6  5  0  0  0  0  0  0  0  0999 V2000
  -27.8640   -7.4760  -31.1990 C   0  0  0  0  0  0  0  0  0  0  0  0
  -27.5380   -6.7190  -32.2850 N   0  0  0  0  0  0  0  0  0  0  0  0
  -27.6840   -8.8650  -31.2620 N   0  0  0  0  0  0  0  0  0  0  0  0
  -28.0975   -9.2947  -30.0006 C   0  0  0  0  0  0  0  0  0  0  0  0
  -28.5014   -8.2952  -29.1740 C   0  0  0  0  0  0  0  0  0  0  0  0
  -28.9555   -8.6499  -27.8581 N   0  0  0  0  0  0  0  0  0  0  0  0
  1  2  2  0
  1  3  1  0
  3  4  1  0
  4  5  2  3
  5  6  1  0
M  END
>  <name>  (8) 
Car Nac Nd0 Car Car Nac

>  <indices>  (8) 
[0, 1, 2]

>  <dummy>  (8) 
1

>  <tasks>  (8) 
probe_placing close_aromatic_ring close_aromatic_ring

>  <current_task>  (8) 
close_aromatic_ring

>  <prot_clashes>  (8) 
0

>  <NBS phar>  (8) 
0.2

>  <NBS_non-phar>  (8) 
0.8807449340820312

>  <NBS>  (8) 
1.0807449340820312

>  <source_stage>  (8) 
scored

>  <source_iter>  (8) 
2

>  <source_parent_mol>  (8) 
1

>  <source_scenario>  (8) 
0 1

>  <source_rank_in_scored_call>  (8) 
2

>  <source_current_task>  (8) 
close_aromatic_ring

>  <rotatable_bond_torsions>  (8) 
1,0,2,3;0,2,3,4

>  <scenario>  (8) 
0 1

>  <reason_to_skip>  (8) 
incorrect arom ring closing

$$$$

     RDKit          3D

  6  5  0  0  0  0  0  0  0  0999 V2000
  -27.8640   -7.4760  -31.1990 C   0  0  0  0  0  0  0  0  0  0  0  0
  -27.5380   -6.7190  -32.2850 N   0  0  0  0  0  0  0  0  0  0  0  0
  -27.6840   -8.8650  -31.2620 N   0  0  0  0  0  0  0  0  0  0  0  0
  -28.0975   -9.2947  -30.0006 C   0  0  0  0  0  0  0  0  0  0  0  0
  -28.5014   -8.2952  -29.1740 C   0  0  0  0  0  0  0  0  0  0  0  0
    0.0000    0.0000    0.0000 O   0  0  0  0  0  0  0  0  0  0  0  0
  1  2  2  0
  1  3  1  0
  3  4  1  0
  4  5  2  3
  5  6  1  0
M  END
>  <name>  (9) 
Car Nac Nd0 Car Car O_a

>  <indices>  (9) 
[0, 1, 2]

>  <dummy>  (9) 
1

>  <tasks>  (9) 
probe_placing close_aromatic_ring close_aromatic_ring

>  <current_task>  (9) 
close_aromatic_ring

>  <prot_clashes>  (9) 
0

>  <NBS phar>  (9) 
0.2

>  <NBS_non-phar>  (9) 
0.8807449340820312

>  <NBS>  (9) 
1.0807449340820312

>  <source_stage>  (9) 
scored

>  <source_iter>  (9) 
2

>  <source_parent_mol>  (9) 
1

>  <source_scenario>  (9) 
0 1

>  <source_rank_in_scored_call>  (9) 
2

>  <source_current_task>  (9) 
close_aromatic_ring

>  <rotatable_bond_torsions>  (9) 
1,0,2,3;0,2,3,4

>  <scenario>  (9) 
0 1

>  <reason_to_skip>  (9) 
some_atom_counter_exceeded

$$$$

     RDKit          3D

  6  5  0  0  0  0  0  0  0  0999 V2000
  -27.8640   -7.4760  -31.1990 C   0  0  0  0  0  0  0  0  0  0  0  0
  -27.5380   -6.7190  -32.2850 N   0  0  0  0  0  0  0  0  0  0  0  0
  -27.6840   -8.8650  -31.2620 N   0  0  0  0  0  0  0  0  0  0  0  0
  -28.0975   -9.2947  -30.0006 C   0  0  0  0  0  0  0  0  0  0  0  0
  -28.5014   -8.2952  -29.1740 C   0  0  0  0  0  0  0  0  0  0  0  0
  -29.9293   -8.1623  -29.0985 C   0  0  0  0  0  0  0  0  0  0  0  0
  1  2  2  0
  1  3  1  0
  3  4  1  0
  4  5  2  3
  5  6  1  0
M  END
>  <name>  (10) 
Car Nac Nd0 Car Car Car

>  <indices>  (10) 
[0, 1, 2]

>  <dummy>  (10) 
1

>  <tasks>  (10) 
probe_placing close_aromatic_ring close_aromatic_ring

>  <current_task>  (10) 
close_aromatic_ring

>  <prot_clashes>  (10) 
0

>  <NBS phar>  (10) 
0.2

>  <NBS_non-phar>  (10) 
0.8807449340820312

>  <NBS>  (10) 
1.0807449340820312

>  <source_stage>  (10) 
scored

>  <source_iter>  (10) 
2

>  <source_parent_mol>  (10) 
1

>  <source_scenario>  (10) 
0 1

>  <source_rank_in_scored_call>  (10) 
2

>  <source_current_task>  (10) 
close_aromatic_ring

>  <rotatable_bond_torsions>  (10) 
1,0,2,3;0,2,3,4

>  <scenario>  (10) 
0 1

>  <reason_to_skip>  (10) 
incorrect arom ring closing

$$$$

     RDKit          3D

  6  5  0  0  0  0  0  0  0  0999 V2000
  -27.8640   -7.4760  -31.1990 C   0  0  0  0  0  0  0  0  0  0  0  0
  -27.5380   -6.7190  -32.2850 N   0  0  0  0  0  0  0  0  0  0  0  0
  -27.6840   -8.8650  -31.2620 N   0  0  0  0  0  0  0  0  0  0  0  0
  -28.0975   -9.2947  -30.0006 C   0  0  0  0  0  0  0  0  0  0  0  0
  -28.5014   -8.2952  -29.1740 C   0  0  0  0  0  0  0  0  0  0  0  0
  -28.9345   -8.6645  -27.9264 N   0  0  0  0  0  0  0  0  0  0  0  0
  1  2  2  0
  1  3  1  0
  3  4  1  0
  4  5  2  3
  5  6  1  0
M  END
>  <name>  (11) 
Car Nac Nd0 Car Car Nd0

>  <indices>  (11) 
[0, 1, 2]

>  <dummy>  (11) 
1

>  <tasks>  (11) 
probe_placing close_aromatic_ring close_aromatic_ring

>  <current_task>  (11) 
close_aromatic_ring

>  <prot_clashes>  (11) 
0

>  <NBS phar>  (11) 
0.2

>  <NBS_non-phar>  (11) 
0.8807449340820312

>  <NBS>  (11) 
1.0807449340820312

>  <source_stage>  (11) 
scored

>  <source_iter>  (11) 
2

>  <source_parent_mol>  (11) 
1

>  <source_scenario>  (11) 
0 1

>  <source_rank_in_scored_call>  (11) 
2

>  <source_current_task>  (11) 
close_aromatic_ring

>  <rotatable_bond_torsions>  (11) 
1,0,2,3;0,2,3,4

>  <scenario>  (11) 
0 1

>  <reason_to_skip>  (11) 
incorrect arom ring closing

$$$$

     RDKit          3D

  6  5  0  0  0  0  0  0  0  0999 V2000
  -27.8640   -7.4760  -31.1990 C   0  0  0  0  0  0  0  0  0  0  0  0
  -27.5380   -6.7190  -32.2850 N   0  0  0  0  0  0  0  0  0  0  0  0
  -27.6840   -8.8650  -31.2620 N   0  0  0  0  0  0  0  0  0  0  0  0
  -28.0975   -9.2947  -30.0006 C   0  0  0  0  0  0  0  0  0  0  0  0
  -28.5014   -8.2952  -29.1740 C   0  0  0  0  0  0  0  0  0  0  0  0
    0.0000    0.0000    0.0000 S   0  0  0  0  0  0  0  0  0  0  0  0
  1  2  2  0
  1  3  1  0
  3  4  1  0
  4  5  2  3
  5  6  1  0
M  END
>  <name>  (12) 
Car Nac Nd0 Car Car Sul

>  <indices>  (12) 
[0, 1, 2]

>  <dummy>  (12) 
1

>  <tasks>  (12) 
probe_placing close_aromatic_ring close_aromatic_ring

>  <current_task>  (12) 
close_aromatic_ring

>  <prot_clashes>  (12) 
0

>  <NBS phar>  (12) 
0.2

>  <NBS_non-phar>  (12) 
0.8807449340820312

>  <NBS>  (12) 
1.0807449340820312

>  <source_stage>  (12) 
scored

>  <source_iter>  (12) 
2

>  <source_parent_mol>  (12) 
1

>  <source_scenario>  (12) 
0 1

>  <source_rank_in_scored_call>  (12) 
2

>  <source_current_task>  (12) 
close_aromatic_ring

>  <rotatable_bond_torsions>  (12) 
1,0,2,3;0,2,3,4

>  <scenario>  (12) 
0 1

>  <reason_to_skip>  (12) 
some_atom_counter_exceeded

$$$$

     RDKit          3D

  6  5  0  0  0  0  0  0  0  0999 V2000
  -27.8640   -7.4760  -31.1990 C   0  0  0  0  0  0  0  0  0  0  0  0
  -27.5380   -6.7190  -32.2850 N   0  0  0  0  0  0  0  0  0  0  0  0
  -27.6840   -8.8650  -31.2620 N   0  0  0  0  0  0  0  0  0  0  0  0
  -28.0975   -9.2947  -30.0006 C   0  0  0  0  0  0  0  0  0  0  0  0
  -28.5014   -8.2952  -29.1740 C   0  0  0  0  0  0  0  0  0  0  0  0
  -29.9084   -8.1031  -28.7588 C   0  0  0  0  0  0  0  0  0  0  0  0
  1  2  2  0
  1  3  1  0
  3  4  1  0
  4  5  2  3
  5  6  1  0
M  END
>  <name>  (13) 
Car Nac Nd0 Car Car Car

>  <indices>  (13) 
[0, 1, 2]

>  <dummy>  (13) 
1

>  <tasks>  (13) 
probe_placing close_aromatic_ring close_aromatic_ring

>  <current_task>  (13) 
close_aromatic_ring

>  <prot_clashes>  (13) 
0

>  <NBS phar>  (13) 
0.2

>  <NBS_non-phar>  (13) 
0.8807449340820312

>  <NBS>  (13) 
1.0807449340820312

>  <source_stage>  (13) 
scored

>  <source_iter>  (13) 
2

>  <source_parent_mol>  (13) 
1

>  <source_scenario>  (13) 
0 1

>  <source_rank_in_scored_call>  (13) 
2

>  <source_current_task>  (13) 
close_aromatic_ring

>  <rotatable_bond_torsions>  (13) 
1,0,2,3;0,2,3,4

>  <scenario>  (13) 
0 1

>  <reason_to_skip>  (13) 
incorrect arom ring closing

$$$$

     RDKit          3D

  6  5  0  0  0  0  0  0  0  0999 V2000
  -27.8640   -7.4760  -31.1990 C   0  0  0  0  0  0  0  0  0  0  0  0
  -27.5380   -6.7190  -32.2850 N   0  0  0  0  0  0  0  0  0  0  0  0
  -27.6840   -8.8650  -31.2620 N   0  0  0  0  0  0  0  0  0  0  0  0
  -28.0975   -9.2947  -30.0006 C   0  0  0  0  0  0  0  0  0  0  0  0
  -28.5014   -8.2952  -29.1740 C   0  0  0  0  0  0  0  0  0  0  0  0
  -28.6909   -6.9925  -29.1538 N   0  0  0  0  0  0  0  0  0  0  0  0
  1  2  2  0
  1  3  1  0
  3  4  1  0
  4  5  2  3
  5  6  1  0
M  END
>  <name>  (14) 
Car Nac Nd0 Car Car Nd0

>  <indices>  (14) 
[0, 1, 2]

>  <dummy>  (14) 
1

>  <tasks>  (14) 
probe_placing close_aromatic_ring close_aromatic_ring

>  <current_task>  (14) 
close_aromatic_ring

>  <prot_clashes>  (14) 
0

>  <NBS phar>  (14) 
0.2

>  <NBS_non-phar>  (14) 
0.8807449340820312

>  <NBS>  (14) 
1.0807449340820312

>  <source_stage>  (14) 
scored

>  <source_iter>  (14) 
2

>  <source_parent_mol>  (14) 
1

>  <source_scenario>  (14) 
0 1

>  <source_rank_in_scored_call>  (14) 
2

>  <source_current_task>  (14) 
close_aromatic_ring

>  <rotatable_bond_torsions>  (14) 
1,0,2,3;0,2,3,4

>  <scenario>  (14) 
0 1

>  <reason_to_skip>  (14) 
bad angles

$$$$

     RDKit          3D

  6  5  0  0  0  0  0  0  0  0999 V2000
  -27.8640   -7.4760  -31.1990 C   0  0  0  0  0  0  0  0  0  0  0  0
  -27.5380   -6.7190  -32.2850 N   0  0  0  0  0  0  0  0  0  0  0  0
  -27.6840   -8.8650  -31.2620 N   0  0  0  0  0  0  0  0  0  0  0  0
  -28.0975   -9.2947  -30.0006 C   0  0  0  0  0  0  0  0  0  0  0  0
  -28.5014   -8.2952  -29.1740 C   0  0  0  0  0  0  0  0  0  0  0  0
    0.0000    0.0000    0.0000 O   0  0  0  0  0  0  0  0  0  0  0  0
  1  2  2  0
  1  3  1  0
  3  4  1  0
  4  5  2  3
  5  6  1  0
M  END
>  <name>  (15) 
Car Nac Nd0 Car Car O_a

>  <indices>  (15) 
[0, 1, 2]

>  <dummy>  (15) 
1

>  <tasks>  (15) 
probe_placing close_aromatic_ring close_aromatic_ring

>  <current_task>  (15) 
close_aromatic_ring

>  <prot_clashes>  (15) 
0

>  <NBS phar>  (15) 
0.2

>  <NBS_non-phar>  (15) 
0.8807449340820312

>  <NBS>  (15) 
1.0807449340820312

>  <source_stage>  (15) 
scored

>  <source_iter>  (15) 
2

>  <source_parent_mol>  (15) 
1

>  <source_scenario>  (15) 
0 1

>  <source_rank_in_scored_call>  (15) 
2

>  <source_current_task>  (15) 
close_aromatic_ring

>  <rotatable_bond_torsions>  (15) 
1,0,2,3;0,2,3,4

>  <scenario>  (15) 
0 1

>  <reason_to_skip>  (15) 
some_atom_counter_exceeded

$$$$

     RDKit          3D

  6  5  0  0  0  0  0  0  0  0999 V2000
  -27.8640   -7.4760  -31.1990 C   0  0  0  0  0  0  0  0  0  0  0  0
  -27.5380   -6.7190  -32.2850 N   0  0  0  0  0  0  0  0  0  0  0  0
  -27.6840   -8.8650  -31.2620 N   0  0  0  0  0  0  0  0  0  0  0  0
  -28.0975   -9.2947  -30.0006 C   0  0  0  0  0  0  0  0  0  0  0  0
  -28.5014   -8.2952  -29.1740 C   0  0  0  0  0  0  0  0  0  0  0  0
    0.0000    0.0000    0.0000 S   0  0  0  0  0  0  0  0  0  0  0  0
  1  2  2  0
  1  3  1  0
  3  4  1  0
  4  5  2  3
  5  6  1  0
M  END
>  <name>  (16) 
Car Nac Nd0 Car Car Sul

>  <indices>  (16) 
[0, 1, 2]

>  <dummy>  (16) 
1

>  <tasks>  (16) 
probe_placing close_aromatic_ring close_aromatic_ring

>  <current_task>  (16) 
close_aromatic_ring

>  <prot_clashes>  (16) 
0

>  <NBS phar>  (16) 
0.2

>  <NBS_non-phar>  (16) 
0.8807449340820312

>  <NBS>  (16) 
1.0807449340820312

>  <source_stage>  (16) 
scored

>  <source_iter>  (16) 
2

>  <source_parent_mol>  (16) 
1

>  <source_scenario>  (16) 
0 1

>  <source_rank_in_scored_call>  (16) 
2

>  <source_current_task>  (16) 
close_aromatic_ring

>  <rotatable_bond_torsions>  (16) 
1,0,2,3;0,2,3,4

>  <scenario>  (16) 
0 1

>  <reason_to_skip>  (16) 
some_atom_counter_exceeded

$$$$

     RDKit          3D

  6  5  0  0  0  0  0  0  0  0999 V2000
  -27.8640   -7.4760  -31.1990 C   0  0  0  0  0  0  0  0  0  0  0  0
  -27.5380   -6.7190  -32.2850 N   0  0  0  0  0  0  0  0  0  0  0  0
  -27.6840   -8.8650  -31.2620 N   0  0  0  0  0  0  0  0  0  0  0  0
  -28.0975   -9.2947  -30.0006 C   0  0  0  0  0  0  0  0  0  0  0  0
  -28.5014   -8.2952  -29.1740 C   0  0  0  0  0  0  0  0  0  0  0  0
    0.0000    0.0000    0.0000 S   0  0  0  0  0  0  0  0  0  0  0  0
  1  2  2  0
  1  3  1  0
  3  4  1  0
  4  5  2  3
  5  6  1  0
M  END
>  <name>  (17) 
Car Nac Nd0 Car Car Sul

>  <indices>  (17) 
[0, 1, 2]

>  <dummy>  (17) 
1

>  <tasks>  (17) 
probe_placing close_aromatic_ring close_aromatic_ring

>  <current_task>  (17) 
close_aromatic_ring

>  <prot_clashes>  (17) 
0

>  <NBS phar>  (17) 
0.2

>  <NBS_non-phar>  (17) 
0.8807449340820312

>  <NBS>  (17) 
1.0807449340820312

>  <source_stage>  (17) 
scored

>  <source_iter>  (17) 
2

>  <source_parent_mol>  (17) 
1

>  <source_scenario>  (17) 
0 1

>  <source_rank_in_scored_call>  (17) 
2

>  <source_current_task>  (17) 
close_aromatic_ring

>  <rotatable_bond_torsions>  (17) 
1,0,2,3;0,2,3,4

>  <scenario>  (17) 
0 1

>  <reason_to_skip>  (17) 
some_atom_counter_exceeded

$$$$

     RDKit          3D

  6  5  0  0  0  0  0  0  0  0999 V2000
  -27.8640   -7.4760  -31.1990 C   0  0  0  0  0  0  0  0  0  0  0  0
  -27.5380   -6.7190  -32.2850 N   0  0  0  0  0  0  0  0  0  0  0  0
  -27.6840   -8.8650  -31.2620 N   0  0  0  0  0  0  0  0  0  0  0  0
  -28.0975   -9.2947  -30.0006 C   0  0  0  0  0  0  0  0  0  0  0  0
  -28.5014   -8.2952  -29.1740 C   0  0  0  0  0  0  0  0  0  0  0  0
    0.0000    0.0000    0.0000 S   0  0  0  0  0  0  0  0  0  0  0  0
  1  2  2  0
  1  3  1  0
  3  4  1  0
  4  5  2  3
  5  6  1  0
M  END
>  <name>  (18) 
Car Nac Nd0 Car Car Sul

>  <indices>  (18) 
[0, 1, 2]

>  <dummy>  (18) 
1

>  <tasks>  (18) 
probe_placing close_aromatic_ring close_aromatic_ring

>  <current_task>  (18) 
close_aromatic_ring

>  <prot_clashes>  (18) 
0

>  <NBS phar>  (18) 
0.2

>  <NBS_non-phar>  (18) 
0.8807449340820312

>  <NBS>  (18) 
1.0807449340820312

>  <source_stage>  (18) 
scored

>  <source_iter>  (18) 
2

>  <source_parent_mol>  (18) 
1

>  <source_scenario>  (18) 
0 1

>  <source_rank_in_scored_call>  (18) 
2

>  <source_current_task>  (18) 
close_aromatic_ring

>  <rotatable_bond_torsions>  (18) 
1,0,2,3;0,2,3,4

>  <scenario>  (18) 
0 1

>  <reason_to_skip>  (18) 
some_atom_counter_exceeded

$$$$

     RDKit          3D

  6  5  0  0  0  0  0  0  0  0999 V2000
  -27.8640   -7.4760  -31.1990 C   0  0  0  0  0  0  0  0  0  0  0  0
  -27.5380   -6.7190  -32.2850 N   0  0  0  0  0  0  0  0  0  0  0  0
  -27.6840   -8.8650  -31.2620 N   0  0  0  0  0  0  0  0  0  0  0  0
  -28.0975   -9.2947  -30.0006 C   0  0  0  0  0  0  0  0  0  0  0  0
  -28.5014   -8.2952  -29.1740 C   0  0  0  0  0  0  0  0  0  0  0  0
    0.0000    0.0000    0.0000 O   0  0  0  0  0  0  0  0  0  0  0  0
  1  2  2  0
  1  3  1  0
  3  4  1  0
  4  5  2  3
  5  6  1  0
M  END
>  <name>  (19) 
Car Nac Nd0 Car Car O_a

>  <indices>  (19) 
[0, 1, 2]

>  <dummy>  (19) 
1

>  <tasks>  (19) 
probe_placing close_aromatic_ring close_aromatic_ring

>  <current_task>  (19) 
close_aromatic_ring

>  <prot_clashes>  (19) 
0

>  <NBS phar>  (19) 
0.2

>  <NBS_non-phar>  (19) 
0.8807449340820312

>  <NBS>  (19) 
1.0807449340820312

>  <source_stage>  (19) 
scored

>  <source_iter>  (19) 
2

>  <source_parent_mol>  (19) 
1

>  <source_scenario>  (19) 
0 1

>  <source_rank_in_scored_call>  (19) 
2

>  <source_current_task>  (19) 
close_aromatic_ring

>  <rotatable_bond_torsions>  (19) 
1,0,2,3;0,2,3,4

>  <scenario>  (19) 
0 1

>  <reason_to_skip>  (19) 
some_atom_counter_exceeded

$$$$

     RDKit          3D

  6  5  0  0  0  0  0  0  0  0999 V2000
  -27.8640   -7.4760  -31.1990 C   0  0  0  0  0  0  0  0  0  0  0  0
  -27.5380   -6.7190  -32.2850 N   0  0  0  0  0  0  0  0  0  0  0  0
  -27.6840   -8.8650  -31.2620 N   0  0  0  0  0  0  0  0  0  0  0  0
  -28.0975   -9.2947  -30.0006 C   0  0  0  0  0  0  0  0  0  0  0  0
  -28.5014   -8.2952  -29.1740 C   0  0  0  0  0  0  0  0  0  0  0  0
    0.0000    0.0000    0.0000 S   0  0  0  0  0  0  0  0  0  0  0  0
  1  2  2  0
  1  3  1  0
  3  4  1  0
  4  5  2  3
  5  6  1  0
M  END
>  <name>  (20) 
Car Nac Nd0 Car Car Sul

>  <indices>  (20) 
[0, 1, 2]

>  <dummy>  (20) 
1

>  <tasks>  (20) 
probe_placing close_aromatic_ring close_aromatic_ring

>  <current_task>  (20) 
close_aromatic_ring

>  <prot_clashes>  (20) 
0

>  <NBS phar>  (20) 
0.2

>  <NBS_non-phar>  (20) 
0.8807449340820312

>  <NBS>  (20) 
1.0807449340820312

>  <source_stage>  (20) 
scored

>  <source_iter>  (20) 
2

>  <source_parent_mol>  (20) 
1

>  <source_scenario>  (20) 
0 1

>  <source_rank_in_scored_call>  (20) 
2

>  <source_current_task>  (20) 
close_aromatic_ring

>  <rotatable_bond_torsions>  (20) 
1,0,2,3;0,2,3,4

>  <scenario>  (20) 
0 1

>  <reason_to_skip>  (20) 
some_atom_counter_exceeded

$$$$

     RDKit          3D

  6  5  0  0  0  0  0  0  0  0999 V2000
  -27.8640   -7.4760  -31.1990 C   0  0  0  0  0  0  0  0  0  0  0  0
  -27.5380   -6.7190  -32.2850 N   0  0  0  0  0  0  0  0  0  0  0  0
  -27.6840   -8.8650  -31.2620 N   0  0  0  0  0  0  0  0  0  0  0  0
  -28.0975   -9.2947  -30.0006 C   0  0  0  0  0  0  0  0  0  0  0  0
  -28.5014   -8.2952  -29.1740 C   0  0  0  0  0  0  0  0  0  0  0  0
    0.0000    0.0000    0.0000 S   0  0  0  0  0  0  0  0  0  0  0  0
  1  2  2  0
  1  3  1  0
  3  4  1  0
  4  5  2  3
  5  6  1  0
M  END
>  <name>  (21) 
Car Nac Nd0 Car Car Sul

>  <indices>  (21) 
[0, 1, 2]

>  <dummy>  (21) 
1

>  <tasks>  (21) 
probe_placing close_aromatic_ring close_aromatic_ring

>  <current_task>  (21) 
close_aromatic_ring

>  <prot_clashes>  (21) 
0

>  <NBS phar>  (21) 
0.2

>  <NBS_non-phar>  (21) 
0.8807449340820312

>  <NBS>  (21) 
1.0807449340820312

>  <source_stage>  (21) 
scored

>  <source_iter>  (21) 
2

>  <source_parent_mol>  (21) 
1

>  <source_scenario>  (21) 
0 1

>  <source_rank_in_scored_call>  (21) 
2

>  <source_current_task>  (21) 
close_aromatic_ring

>  <rotatable_bond_torsions>  (21) 
1,0,2,3;0,2,3,4

>  <scenario>  (21) 
0 1

>  <reason_to_skip>  (21) 
some_atom_counter_exceeded

$$$$

     RDKit          3D

  6  5  0  0  0  0  0  0  0  0999 V2000
  -27.8640   -7.4760  -31.1990 C   0  0  0  0  0  0  0  0  0  0  0  0
  -27.5380   -6.7190  -32.2850 N   0  0  0  0  0  0  0  0  0  0  0  0
  -27.6840   -8.8650  -31.2620 N   0  0  0  0  0  0  0  0  0  0  0  0
  -28.0975   -9.2947  -30.0006 C   0  0  0  0  0  0  0  0  0  0  0  0
  -28.5014   -8.2952  -29.1740 C   0  0  0  0  0  0  0  0  0  0  0  0
  -27.8592   -8.1046  -27.8991 C   0  0  0  0  0  0  0  0  0  0  0  0
  1  2  2  0
  1  3  1  0
  3  4  1  0
  4  5  2  3
  5  6  1  0
M  END
>  <name>  (22) 
Car Nac Nd0 Car Car Car

>  <indices>  (22) 
[0, 1, 2]

>  <dummy>  (22) 
1

>  <tasks>  (22) 
probe_placing close_aromatic_ring close_aromatic_ring

>  <current_task>  (22) 
close_aromatic_ring

>  <prot_clashes>  (22) 
0

>  <NBS phar>  (22) 
0.2

>  <NBS_non-phar>  (22) 
0.8807449340820312

>  <NBS>  (22) 
1.0807449340820312

>  <source_stage>  (22) 
scored

>  <source_iter>  (22) 
2

>  <source_parent_mol>  (22) 
1

>  <source_scenario>  (22) 
0 1

>  <source_rank_in_scored_call>  (22) 
2

>  <source_current_task>  (22) 
close_aromatic_ring

>  <rotatable_bond_torsions>  (22) 
1,0,2,3;0,2,3,4

>  <scenario>  (22) 
0 1

>  <reason_to_skip>  (22) 
incorrect arom ring closing

$$$$

     RDKit          3D

  6  5  0  0  0  0  0  0  0  0999 V2000
  -27.8640   -7.4760  -31.1990 C   0  0  0  0  0  0  0  0  0  0  0  0
  -27.5380   -6.7190  -32.2850 N   0  0  0  0  0  0  0  0  0  0  0  0
  -27.6840   -8.8650  -31.2620 N   0  0  0  0  0  0  0  0  0  0  0  0
  -28.0975   -9.2947  -30.0006 C   0  0  0  0  0  0  0  0  0  0  0  0
  -28.5014   -8.2952  -29.1740 C   0  0  0  0  0  0  0  0  0  0  0  0
  -27.4943   -7.6742  -28.1374 C   0  0  0  0  0  0  0  0  0  0  0  0
  1  2  2  0
  1  3  1  0
  3  4  1  0
  4  5  2  3
  5  6  1  0
M  END
>  <name>  (23) 
Car Nac Nd0 Car Car Car

>  <indices>  (23) 
[0, 1, 2]

>  <dummy>  (23) 
1

>  <tasks>  (23) 
probe_placing close_aromatic_ring close_aromatic_ring

>  <current_task>  (23) 
close_aromatic_ring

>  <prot_clashes>  (23) 
0

>  <NBS phar>  (23) 
0.2

>  <NBS_non-phar>  (23) 
0.8807449340820312

>  <NBS>  (23) 
1.0807449340820312

>  <source_stage>  (23) 
scored

>  <source_iter>  (23) 
2

>  <source_parent_mol>  (23) 
1

>  <source_scenario>  (23) 
0 1

>  <source_rank_in_scored_call>  (23) 
2

>  <source_current_task>  (23) 
close_aromatic_ring

>  <rotatable_bond_torsions>  (23) 
1,0,2,3;0,2,3,4

>  <scenario>  (23) 
0 1

>  <reason_to_skip>  (23) 
incorrect arom ring closing

$$$$

     RDKit          3D

  6  5  0  0  0  0  0  0  0  0999 V2000
  -27.8640   -7.4760  -31.1990 C   0  0  0  0  0  0  0  0  0  0  0  0
  -27.5380   -6.7190  -32.2850 N   0  0  0  0  0  0  0  0  0  0  0  0
  -27.6840   -8.8650  -31.2620 N   0  0  0  0  0  0  0  0  0  0  0  0
  -28.0975   -9.2947  -30.0006 C   0  0  0  0  0  0  0  0  0  0  0  0
  -28.5014   -8.2952  -29.1740 C   0  0  0  0  0  0  0  0  0  0  0  0
  -28.5429   -6.9948  -29.4958 N   0  0  0  0  0  0  0  0  0  0  0  0
  1  2  2  0
  1  3  1  0
  3  4  1  0
  4  5  2  3
  5  6  1  0
M  END
>  <name>  (24) 
Car Nac Nd0 Car Car Nd0

>  <indices>  (24) 
[0, 1, 2]

>  <dummy>  (24) 
1

>  <tasks>  (24) 
probe_placing close_aromatic_ring close_aromatic_ring

>  <current_task>  (24) 
close_aromatic_ring

>  <prot_clashes>  (24) 
0

>  <NBS phar>  (24) 
0.2

>  <NBS_non-phar>  (24) 
0.8807449340820312

>  <NBS>  (24) 
1.0807449340820312

>  <source_stage>  (24) 
scored

>  <source_iter>  (24) 
2

>  <source_parent_mol>  (24) 
1

>  <source_scenario>  (24) 
0 1

>  <source_rank_in_scored_call>  (24) 
2

>  <source_current_task>  (24) 
close_aromatic_ring

>  <rotatable_bond_torsions>  (24) 
1,0,2,3;0,2,3,4

>  <scenario>  (24) 
0 1

>  <reason_to_skip>  (24) 
intramol clashes

$$$$

     RDKit          3D

  6  5  0  0  0  0  0  0  0  0999 V2000
  -27.8640   -7.4760  -31.1990 C   0  0  0  0  0  0  0  0  0  0  0  0
  -27.5380   -6.7190  -32.2850 N   0  0  0  0  0  0  0  0  0  0  0  0
  -27.6840   -8.8650  -31.2620 N   0  0  0  0  0  0  0  0  0  0  0  0
  -28.0975   -9.2947  -30.0006 C   0  0  0  0  0  0  0  0  0  0  0  0
  -28.5014   -8.2952  -29.1740 C   0  0  0  0  0  0  0  0  0  0  0  0
  -28.5782   -6.9317  -29.3504 C   0  0  0  0  0  0  0  0  0  0  0  0
  1  2  2  0
  1  3  1  0
  3  4  1  0
  4  5  2  3
  5  6  1  0
M  END
>  <name>  (25) 
Car Nac Nd0 Car Car Car

>  <indices>  (25) 
[0, 1, 2]

>  <dummy>  (25) 
1

>  <tasks>  (25) 
probe_placing close_aromatic_ring close_aromatic_ring

>  <current_task>  (25) 
close_aromatic_ring

>  <prot_clashes>  (25) 
0

>  <NBS phar>  (25) 
0.2

>  <NBS_non-phar>  (25) 
0.8807449340820312

>  <NBS>  (25) 
1.0807449340820312

>  <source_stage>  (25) 
scored

>  <source_iter>  (25) 
2

>  <source_parent_mol>  (25) 
1

>  <source_scenario>  (25) 
0 1

>  <source_rank_in_scored_call>  (25) 
2

>  <source_current_task>  (25) 
close_aromatic_ring

>  <rotatable_bond_torsions>  (25) 
1,0,2,3;0,2,3,4

>  <scenario>  (25) 
0 1

>  <reason_to_skip>  (25) 
subgraph mismatch

$$$$

     RDKit          3D

  6  5  0  0  0  0  0  0  0  0999 V2000
  -27.8640   -7.4760  -31.1990 C   0  0  0  0  0  0  0  0  0  0  0  0
  -27.5380   -6.7190  -32.2850 N   0  0  0  0  0  0  0  0  0  0  0  0
  -27.6840   -8.8650  -31.2620 N   0  0  0  0  0  0  0  0  0  0  0  0
  -28.0975   -9.2947  -30.0006 C   0  0  0  0  0  0  0  0  0  0  0  0
  -28.5014   -8.2952  -29.1740 C   0  0  0  0  0  0  0  0  0  0  0  0
  -28.5928   -6.9489  -29.2942 N   0  0  0  0  0  0  0  0  0  0  0  0
  1  2  2  0
  1  3  1  0
  3  4  1  0
  4  5  2  3
  5  6  1  0
M  END
>  <name>  (26) 
Car Nac Nd0 Car Car Nac

>  <indices>  (26) 
[0, 1, 2]

>  <dummy>  (26) 
1

>  <tasks>  (26) 
probe_placing close_aromatic_ring close_aromatic_ring

>  <current_task>  (26) 
close_aromatic_ring

>  <prot_clashes>  (26) 
0

>  <NBS phar>  (26) 
0.2

>  <NBS_non-phar>  (26) 
0.8807449340820312

>  <NBS>  (26) 
1.0807449340820312

>  <source_stage>  (26) 
scored

>  <source_iter>  (26) 
2

>  <source_parent_mol>  (26) 
1

>  <source_scenario>  (26) 
0 1

>  <source_rank_in_scored_call>  (26) 
2

>  <source_current_task>  (26) 
close_aromatic_ring

>  <rotatable_bond_torsions>  (26) 
1,0,2,3;0,2,3,4

>  <scenario>  (26) 
0 1

>  <reason_to_skip>  (26) 
subgraph mismatch

$$$$

     RDKit          3D

  7  7  0  0  0  0  0  0  0  0999 V2000
  -27.8454   -7.4161  -31.2694 C   0  0  0  0  0  0  0  0  0  0  0  0
  -27.5380   -6.7190  -32.2850 N   0  0  0  0  0  0  0  0  0  0  0  0
  -27.7110   -8.8447  -31.1986 N   0  0  0  0  0  0  0  0  0  0  0  0
  -28.1042   -9.3672  -29.9500 C   0  0  0  0  0  0  0  0  0  0  0  0
  -28.4813   -8.3486  -29.2230 C   0  0  0  0  0  0  0  0  0  0  0  0
  -28.3754   -7.0578  -29.9151 C   0  0  0  0  0  0  0  0  0  0  0  0
  -28.7676   -5.5012  -29.3125 S   0  0  0  0  0  0  0  0  0  0  0  0
  1  2  2  0
  1  3  1  0
  3  4  1  0
  4  5  2  0
  5  6  1  0
  1  6  1  0
  6  7  1  0
M  END
>  <name>  (1) 
Car Nac Nd0 Car Car Car Sul

>  <indices>  (1) 
[0, 1, 2]

>  <tasks>  (1) 
probe_placing close_aromatic_ring close_aromatic_ring close_aromatic_ring ring_built

>  <prot_clashes>  (1) 
1

>  <NBS phar>  (1) 
0.2

>  <NBS_non-phar>  (1) 
0.7459243933359782

>  <NBS>  (1) 
0.9459243933359782

>  <source_stage>  (1) 
scored

>  <source_iter>  (1) 
3

>  <source_parent_mol>  (1) 
2

>  <source_scenario>  (1) 
0 1 2

>  <source_rank_in_scored_call>  (1) 
0

>  <source_current_task>  (1) 
close_aromatic_ring

>  <scenario>  (1) 
0 1 2

>  <reason_to_skip>  (1) 
some_atom_counter_exceeded

$$$$

     RDKit          3D

  7  7  0  0  0  0  0  0  0  0999 V2000
  -27.8454   -7.4161  -31.2694 C   0  0  0  0  0  0  0  0  0  0  0  0
  -27.5380   -6.7190  -32.2850 N   0  0  0  0  0  0  0  0  0  0  0  0
  -27.7110   -8.8447  -31.1986 N   0  0  0  0  0  0  0  0  0  0  0  0
  -28.1042   -9.3672  -29.9500 C   0  0  0  0  0  0  0  0  0  0  0  0
  -28.4813   -8.3486  -29.2230 C   0  0  0  0  0  0  0  0  0  0  0  0
  -28.3754   -7.0578  -29.9151 C   0  0  0  0  0  0  0  0  0  0  0  0
  -28.6985   -5.4187  -29.5291 S   0  0  0  0  0  0  0  0  0  0  0  0
  1  2  2  0
  1  3  1  0
  3  4  1  0
  4  5  2  0
  5  6  1  0
  1  6  1  0
  6  7  1  0
M  END
>  <name>  (2) 
Car Nac Nd0 Car Car Car Sul

>  <indices>  (2) 
[0, 1, 2]

>  <tasks>  (2) 
probe_placing close_aromatic_ring close_aromatic_ring close_aromatic_ring ring_built

>  <prot_clashes>  (2) 
1

>  <NBS phar>  (2) 
0.2

>  <NBS_non-phar>  (2) 
0.7459243933359782

>  <NBS>  (2) 
0.9459243933359782

>  <source_stage>  (2) 
scored

>  <source_iter>  (2) 
3

>  <source_parent_mol>  (2) 
2

>  <source_scenario>  (2) 
0 1 2

>  <source_rank_in_scored_call>  (2) 
0

>  <source_current_task>  (2) 
close_aromatic_ring

>  <scenario>  (2) 
0 1 2

>  <reason_to_skip>  (2) 
some_atom_counter_exceeded

$$$$

     RDKit          3D

  7  7  0  0  0  0  0  0  0  0999 V2000
  -27.8454   -7.4161  -31.2694 C   0  0  0  0  0  0  0  0  0  0  0  0
  -27.5380   -6.7190  -32.2850 N   0  0  0  0  0  0  0  0  0  0  0  0
  -27.7110   -8.8447  -31.1986 N   0  0  0  0  0  0  0  0  0  0  0  0
  -28.1042   -9.3672  -29.9500 C   0  0  0  0  0  0  0  0  0  0  0  0
  -28.4813   -8.3486  -29.2230 C   0  0  0  0  0  0  0  0  0  0  0  0
  -28.3754   -7.0578  -29.9151 C   0  0  0  0  0  0  0  0  0  0  0  0
  -28.8289   -5.6146  -29.1079 S   0  0  0  0  0  0  0  0  0  0  0  0
  1  2  2  0
  1  3  1  0
  3  4  1  0
  4  5  2  0
  5  6  1  0
  1  6  1  0
  6  7  1  0
M  END
>  <name>  (3) 
Car Nac Nd0 Car Car Car Sul

>  <indices>  (3) 
[0, 1, 2]

>  <tasks>  (3) 
probe_placing close_aromatic_ring close_aromatic_ring close_aromatic_ring ring_built

>  <prot_clashes>  (3) 
1

>  <NBS phar>  (3) 
0.2

>  <NBS_non-phar>  (3) 
0.7459243933359782

>  <NBS>  (3) 
0.9459243933359782

>  <source_stage>  (3) 
scored

>  <source_iter>  (3) 
3

>  <source_parent_mol>  (3) 
2

>  <source_scenario>  (3) 
0 1 2

>  <source_rank_in_scored_call>  (3) 
0

>  <source_current_task>  (3) 
close_aromatic_ring

>  <scenario>  (3) 
0 1 2

>  <reason_to_skip>  (3) 
some_atom_counter_exceeded

$$$$

     RDKit          3D

  7  7  0  0  0  0  0  0  0  0999 V2000
  -27.8454   -7.4161  -31.2694 C   0  0  0  0  0  0  0  0  0  0  0  0
  -27.5380   -6.7190  -32.2850 N   0  0  0  0  0  0  0  0  0  0  0  0
  -27.7110   -8.8447  -31.1986 N   0  0  0  0  0  0  0  0  0  0  0  0
  -28.1042   -9.3672  -29.9500 C   0  0  0  0  0  0  0  0  0  0  0  0
  -28.4813   -8.3486  -29.2230 C   0  0  0  0  0  0  0  0  0  0  0  0
  -28.3754   -7.0578  -29.9151 C   0  0  0  0  0  0  0  0  0  0  0  0
  -28.6905   -5.8072  -29.4310 O   0  0  0  0  0  0  0  0  0  0  0  0
  1  2  2  0
  1  3  1  0
  3  4  1  0
  4  5  2  0
  5  6  1  0
  1  6  1  0
  6  7  1  0
M  END
>  <name>  (4) 
Car Nac Nd0 Car Car Car O_a

>  <indices>  (4) 
[0, 1, 2]

>  <tasks>  (4) 
probe_placing close_aromatic_ring close_aromatic_ring close_aromatic_ring ring_built

>  <prot_clashes>  (4) 
1

>  <NBS phar>  (4) 
0.2

>  <NBS_non-phar>  (4) 
0.7459243933359782

>  <NBS>  (4) 
0.9459243933359782

>  <source_stage>  (4) 
scored

>  <source_iter>  (4) 
3

>  <source_parent_mol>  (4) 
2

>  <source_scenario>  (4) 
0 1 2

>  <source_rank_in_scored_call>  (4) 
0

>  <source_current_task>  (4) 
close_aromatic_ring

>  <scenario>  (4) 
0 1 2

>  <reason_to_skip>  (4) 
some_atom_counter_exceeded

$$$$

     RDKit          3D

  7  7  0  0  0  0  0  0  0  0999 V2000
  -27.8454   -7.4161  -31.2694 C   0  0  0  0  0  0  0  0  0  0  0  0
  -27.5380   -6.7190  -32.2850 N   0  0  0  0  0  0  0  0  0  0  0  0
  -27.7110   -8.8447  -31.1986 N   0  0  0  0  0  0  0  0  0  0  0  0
  -28.1042   -9.3672  -29.9500 C   0  0  0  0  0  0  0  0  0  0  0  0
  -28.4813   -8.3486  -29.2230 C   0  0  0  0  0  0  0  0  0  0  0  0
  -28.3754   -7.0578  -29.9151 C   0  0  0  0  0  0  0  0  0  0  0  0
  -28.6349   -5.7410  -29.6050 O   0  0  0  0  0  0  0  0  0  0  0  0
  1  2  2  0
  1  3  1  0
  3  4  1  0
  4  5  2  0
  5  6  1  0
  1  6  1  0
  6  7  1  0
M  END
>  <name>  (5) 
Car Nac Nd0 Car Car Car O_a

>  <indices>  (5) 
[0, 1, 2]

>  <tasks>  (5) 
probe_placing close_aromatic_ring close_aromatic_ring close_aromatic_ring ring_built

>  <prot_clashes>  (5) 
1

>  <NBS phar>  (5) 
0.2

>  <NBS_non-phar>  (5) 
0.7459243933359782

>  <NBS>  (5) 
0.9459243933359782

>  <source_stage>  (5) 
scored

>  <source_iter>  (5) 
3

>  <source_parent_mol>  (5) 
2

>  <source_scenario>  (5) 
0 1 2

>  <source_rank_in_scored_call>  (5) 
0

>  <source_current_task>  (5) 
close_aromatic_ring

>  <scenario>  (5) 
0 1 2

>  <reason_to_skip>  (5) 
some_atom_counter_exceeded

$$$$

     RDKit          3D

  7  7  0  0  0  0  0  0  0  0999 V2000
  -27.8454   -7.4161  -31.2694 C   0  0  0  0  0  0  0  0  0  0  0  0
  -27.5380   -6.7190  -32.2850 N   0  0  0  0  0  0  0  0  0  0  0  0
  -27.7110   -8.8447  -31.1986 N   0  0  0  0  0  0  0  0  0  0  0  0
  -28.1042   -9.3672  -29.9500 C   0  0  0  0  0  0  0  0  0  0  0  0
  -28.4813   -8.3486  -29.2230 C   0  0  0  0  0  0  0  0  0  0  0  0
  -28.3754   -7.0578  -29.9151 C   0  0  0  0  0  0  0  0  0  0  0  0
  -28.7397   -5.8984  -29.2666 O   0  0  0  0  0  0  0  0  0  0  0  0
  1  2  2  0
  1  3  1  0
  3  4  1  0
  4  5  2  0
  5  6  1  0
  1  6  1  0
  6  7  1  0
M  END
>  <name>  (6) 
Car Nac Nd0 Car Car Car O_a

>  <indices>  (6) 
[0, 1, 2]

>  <tasks>  (6) 
probe_placing close_aromatic_ring close_aromatic_ring close_aromatic_ring ring_built

>  <prot_clashes>  (6) 
1

>  <NBS phar>  (6) 
0.2

>  <NBS_non-phar>  (6) 
0.7459243933359782

>  <NBS>  (6) 
0.9459243933359782

>  <source_stage>  (6) 
scored

>  <source_iter>  (6) 
3

>  <source_parent_mol>  (6) 
2

>  <source_scenario>  (6) 
0 1 2

>  <source_rank_in_scored_call>  (6) 
0

>  <source_current_task>  (6) 
close_aromatic_ring

>  <scenario>  (6) 
0 1 2

>  <reason_to_skip>  (6) 
some_atom_counter_exceeded

$$$$

     RDKit          3D

  7  7  0  0  0  0  0  0  0  0999 V2000
  -27.8454   -7.4161  -31.2694 C   0  0  0  0  0  0  0  0  0  0  0  0
  -27.5380   -6.7190  -32.2850 N   0  0  0  0  0  0  0  0  0  0  0  0
  -27.7110   -8.8447  -31.1986 N   0  0  0  0  0  0  0  0  0  0  0  0
  -28.1042   -9.3672  -29.9500 C   0  0  0  0  0  0  0  0  0  0  0  0
  -28.4813   -8.3486  -29.2230 C   0  0  0  0  0  0  0  0  0  0  0  0
  -28.3754   -7.0578  -29.9151 C   0  0  0  0  0  0  0  0  0  0  0  0
  -28.6882   -5.8164  -29.4346 N   0  0  0  0  0  0  0  0  0  0  0  0
  1  2  2  0
  1  3  1  0
  3  4  1  0
  4  5  2  0
  5  6  1  0
  1  6  1  0
  6  7  1  0
M  END
>  <name>  (7) 
Car Nac Nd0 Car Car Car Nac

>  <indices>  (7) 
[0, 1, 2]

>  <tasks>  (7) 
probe_placing close_aromatic_ring close_aromatic_ring close_aromatic_ring ring_built

>  <prot_clashes>  (7) 
1

>  <NBS phar>  (7) 
0.2

>  <NBS_non-phar>  (7) 
0.7459243933359782

>  <NBS>  (7) 
0.9459243933359782

>  <source_stage>  (7) 
scored

>  <source_iter>  (7) 
3

>  <source_parent_mol>  (7) 
2

>  <source_scenario>  (7) 
0 1 2

>  <source_rank_in_scored_call>  (7) 
0

>  <source_current_task>  (7) 
close_aromatic_ring

>  <scenario>  (7) 
0 1 2

>  <current_task>  (7) 
close_aromatic_ring

>  <reason_to_skip>  (7) 
subgraph mismatch

$$$$

     RDKit          3D

  7  7  0  0  0  0  0  0  0  0999 V2000
  -27.8454   -7.4161  -31.2694 C   0  0  0  0  0  0  0  0  0  0  0  0
  -27.5380   -6.7190  -32.2850 N   0  0  0  0  0  0  0  0  0  0  0  0
  -27.7110   -8.8447  -31.1986 N   0  0  0  0  0  0  0  0  0  0  0  0
  -28.1042   -9.3672  -29.9500 C   0  0  0  0  0  0  0  0  0  0  0  0
  -28.4813   -8.3486  -29.2230 C   0  0  0  0  0  0  0  0  0  0  0  0
  -28.3754   -7.0578  -29.9151 C   0  0  0  0  0  0  0  0  0  0  0  0
  -28.6330   -5.7507  -29.6073 N   0  0  0  0  0  0  0  0  0  0  0  0
  1  2  2  0
  1  3  1  0
  3  4  1  0
  4  5  2  0
  5  6  1  0
  1  6  1  0
  6  7  1  0
M  END
>  <name>  (8) 
Car Nac Nd0 Car Car Car Nac

>  <indices>  (8) 
[0, 1, 2]

>  <tasks>  (8) 
probe_placing close_aromatic_ring close_aromatic_ring close_aromatic_ring ring_built

>  <prot_clashes>  (8) 
1

>  <NBS phar>  (8) 
0.2

>  <NBS_non-phar>  (8) 
0.7459243933359782

>  <NBS>  (8) 
0.9459243933359782

>  <source_stage>  (8) 
scored

>  <source_iter>  (8) 
3

>  <source_parent_mol>  (8) 
2

>  <source_scenario>  (8) 
0 1 2

>  <source_rank_in_scored_call>  (8) 
0

>  <source_current_task>  (8) 
close_aromatic_ring

>  <scenario>  (8) 
0 1 2

>  <initiate_ring_bisect>  (8) 


>  <current_task>  (8) 
close_aromatic_ring

>  <reason_to_skip>  (8) 
subgraph mismatch

$$$$

     RDKit          3D

  7  7  0  0  0  0  0  0  0  0999 V2000
  -27.8454   -7.4161  -31.2694 C   0  0  0  0  0  0  0  0  0  0  0  0
  -27.5380   -6.7190  -32.2850 N   0  0  0  0  0  0  0  0  0  0  0  0
  -27.7110   -8.8447  -31.1986 N   0  0  0  0  0  0  0  0  0  0  0  0
  -28.1042   -9.3672  -29.9500 C   0  0  0  0  0  0  0  0  0  0  0  0
  -28.4813   -8.3486  -29.2230 C   0  0  0  0  0  0  0  0  0  0  0  0
  -28.3754   -7.0578  -29.9151 C   0  0  0  0  0  0  0  0  0  0  0  0
  -28.7371   -5.9069  -29.2714 N   0  0  0  0  0  0  0  0  0  0  0  0
  1  2  2  0
  1  3  1  0
  3  4  1  0
  4  5  2  0
  5  6  1  0
  1  6  1  0
  6  7  1  0
M  END
>  <name>  (9) 
Car Nac Nd0 Car Car Car Nac

>  <indices>  (9) 
[0, 1, 2]

>  <tasks>  (9) 
probe_placing close_aromatic_ring close_aromatic_ring close_aromatic_ring ring_built

>  <prot_clashes>  (9) 
1

>  <NBS phar>  (9) 
0.2

>  <NBS_non-phar>  (9) 
0.7459243933359782

>  <NBS>  (9) 
0.9459243933359782

>  <source_stage>  (9) 
scored

>  <source_iter>  (9) 
3

>  <source_parent_mol>  (9) 
2

>  <source_scenario>  (9) 
0 1 2

>  <source_rank_in_scored_call>  (9) 
0

>  <source_current_task>  (9) 
close_aromatic_ring

>  <scenario>  (9) 
0 1 2

>  <initiate_ring_bisect>  (9) 


>  <current_task>  (9) 
close_aromatic_ring

>  <reason_to_skip>  (9) 
subgraph mismatch

$$$$

     RDKit          3D

  7  7  0  0  0  0  0  0  0  0999 V2000
  -27.8454   -7.4161  -31.2694 C   0  0  0  0  0  0  0  0  0  0  0  0
  -27.5380   -6.7190  -32.2850 N   0  0  0  0  0  0  0  0  0  0  0  0
  -27.7110   -8.8447  -31.1986 N   0  0  0  0  0  0  0  0  0  0  0  0
  -28.1042   -9.3672  -29.9500 C   0  0  0  0  0  0  0  0  0  0  0  0
  -28.4813   -8.3486  -29.2230 C   0  0  0  0  0  0  0  0  0  0  0  0
  -28.3754   -7.0578  -29.9151 C   0  0  0  0  0  0  0  0  0  0  0  0
  -28.6896   -5.8106  -29.4323 N   0  0  0  0  0  0  0  0  0  0  0  0
  1  2  2  0
  1  3  1  0
  3  4  1  0
  4  5  2  0
  5  6  1  0
  1  6  1  0
  6  7  1  0
M  END
>  <name>  (10) 
Car Nac Nd0 Car Car Car Nd0

>  <indices>  (10) 
[0, 1, 2]

>  <tasks>  (10) 
probe_placing close_aromatic_ring close_aromatic_ring close_aromatic_ring ring_built

>  <prot_clashes>  (10) 
1

>  <NBS phar>  (10) 
0.2

>  <NBS_non-phar>  (10) 
0.7459243933359782

>  <NBS>  (10) 
0.9459243933359782

>  <source_stage>  (10) 
scored

>  <source_iter>  (10) 
3

>  <source_parent_mol>  (10) 
2

>  <source_scenario>  (10) 
0 1 2

>  <source_rank_in_scored_call>  (10) 
0

>  <source_current_task>  (10) 
close_aromatic_ring

>  <scenario>  (10) 
0 1 2

>  <current_task>  (10) 
close_aromatic_ring

>  <reason_to_skip>  (10) 
subgraph mismatch

$$$$

     RDKit          3D

  7  7  0  0  0  0  0  0  0  0999 V2000
  -27.8454   -7.4161  -31.2694 C   0  0  0  0  0  0  0  0  0  0  0  0
  -27.5380   -6.7190  -32.2850 N   0  0  0  0  0  0  0  0  0  0  0  0
  -27.7110   -8.8447  -31.1986 N   0  0  0  0  0  0  0  0  0  0  0  0
  -28.1042   -9.3672  -29.9500 C   0  0  0  0  0  0  0  0  0  0  0  0
  -28.4813   -8.3486  -29.2230 C   0  0  0  0  0  0  0  0  0  0  0  0
  -28.3754   -7.0578  -29.9151 C   0  0  0  0  0  0  0  0  0  0  0  0
  -28.6342   -5.7445  -29.6058 N   0  0  0  0  0  0  0  0  0  0  0  0
  1  2  2  0
  1  3  1  0
  3  4  1  0
  4  5  2  0
  5  6  1  0
  1  6  1  0
  6  7  1  0
M  END
>  <name>  (11) 
Car Nac Nd0 Car Car Car Nd0

>  <indices>  (11) 
[0, 1, 2]

>  <tasks>  (11) 
probe_placing close_aromatic_ring close_aromatic_ring close_aromatic_ring ring_built

>  <prot_clashes>  (11) 
1

>  <NBS phar>  (11) 
0.2

>  <NBS_non-phar>  (11) 
0.7459243933359782

>  <NBS>  (11) 
0.9459243933359782

>  <source_stage>  (11) 
scored

>  <source_iter>  (11) 
3

>  <source_parent_mol>  (11) 
2

>  <source_scenario>  (11) 
0 1 2

>  <source_rank_in_scored_call>  (11) 
0

>  <source_current_task>  (11) 
close_aromatic_ring

>  <scenario>  (11) 
0 1 2

>  <initiate_ring_bisect>  (11) 


>  <current_task>  (11) 
close_aromatic_ring

>  <reason_to_skip>  (11) 
subgraph mismatch

$$$$

     RDKit          3D

  7  7  0  0  0  0  0  0  0  0999 V2000
  -27.8454   -7.4161  -31.2694 C   0  0  0  0  0  0  0  0  0  0  0  0
  -27.5380   -6.7190  -32.2850 N   0  0  0  0  0  0  0  0  0  0  0  0
  -27.7110   -8.8447  -31.1986 N   0  0  0  0  0  0  0  0  0  0  0  0
  -28.1042   -9.3672  -29.9500 C   0  0  0  0  0  0  0  0  0  0  0  0
  -28.4813   -8.3486  -29.2230 C   0  0  0  0  0  0  0  0  0  0  0  0
  -28.3754   -7.0578  -29.9151 C   0  0  0  0  0  0  0  0  0  0  0  0
  -28.7388   -5.9015  -29.2683 N   0  0  0  0  0  0  0  0  0  0  0  0
  1  2  2  0
  1  3  1  0
  3  4  1  0
  4  5  2  0
  5  6  1  0
  1  6  1  0
  6  7  1  0
M  END
>  <name>  (12) 
Car Nac Nd0 Car Car Car Nd0

>  <indices>  (12) 
[0, 1, 2]

>  <tasks>  (12) 
probe_placing close_aromatic_ring close_aromatic_ring close_aromatic_ring ring_built

>  <prot_clashes>  (12) 
1

>  <NBS phar>  (12) 
0.2

>  <NBS_non-phar>  (12) 
0.7459243933359782

>  <NBS>  (12) 
0.9459243933359782

>  <source_stage>  (12) 
scored

>  <source_iter>  (12) 
3

>  <source_parent_mol>  (12) 
2

>  <source_scenario>  (12) 
0 1 2

>  <source_rank_in_scored_call>  (12) 
0

>  <source_current_task>  (12) 
close_aromatic_ring

>  <scenario>  (12) 
0 1 2

>  <initiate_ring_bisect>  (12) 


>  <current_task>  (12) 
close_aromatic_ring

>  <reason_to_skip>  (12) 
subgraph mismatch

$$$$

     RDKit          3D

  6  5  0  0  0  0  0  0  0  0999 V2000
  -27.8640   -7.4760  -31.1990 C   0  0  0  0  0  0  0  0  0  0  0  0
  -27.5380   -6.7190  -32.2850 N   0  0  0  0  0  0  0  0  0  0  0  0
  -27.6840   -8.8650  -31.2620 N   0  0  0  0  0  0  0  0  0  0  0  0
  -28.0975   -9.2947  -30.0006 C   0  0  0  0  0  0  0  0  0  0  0  0
  -28.5730   -8.5887  -28.8689 C   0  0  0  0  0  0  0  0  0  0  0  0
  -29.0550   -9.1260  -27.6330 C   0  0  0  0  0  0  0  0  0  0  0  0
  1  2  2  0
  1  3  1  0
  3  4  1  0
  4  5  1  0
  5  6  1  0
M  END
>  <name>  (1) 
Car Nac Nd0 Car Car Car

>  <indices>  (1) 
[0, 1, 2]

>  <dummy>  (1) 
1

>  <tasks>  (1) 
probe_placing close_aromatic_ring close_aromatic_ring

>  <current_task>  (1) 
close_aromatic_ring

>  <prot_clashes>  (1) 
1

>  <NBS phar>  (1) 
0.2

>  <NBS_non-phar>  (1) 
0.8459325790405273

>  <NBS>  (1) 
1.0459325790405274

>  <source_stage>  (1) 
scored

>  <source_iter>  (1) 
2

>  <source_parent_mol>  (1) 
1

>  <source_scenario>  (1) 
0 1

>  <source_rank_in_scored_call>  (1) 
3

>  <source_current_task>  (1) 
close_aromatic_ring

>  <rotatable_bond_torsions>  (1) 
1,0,2,3;0,2,3,4

>  <scenario>  (1) 
0 1

>  <reason_to_skip>  (1) 
incorrect arom ring closing

$$$$

     RDKit          3D

  6  5  0  0  0  0  0  0  0  0999 V2000
  -27.8640   -7.4760  -31.1990 C   0  0  0  0  0  0  0  0  0  0  0  0
  -27.5380   -6.7190  -32.2850 N   0  0  0  0  0  0  0  0  0  0  0  0
  -27.6840   -8.8650  -31.2620 N   0  0  0  0  0  0  0  0  0  0  0  0
  -28.0975   -9.2947  -30.0006 C   0  0  0  0  0  0  0  0  0  0  0  0
  -28.5730   -8.5887  -28.8689 C   0  0  0  0  0  0  0  0  0  0  0  0
  -28.8925   -9.1535  -27.5697 C   0  0  0  0  0  0  0  0  0  0  0  0
  1  2  2  0
  1  3  1  0
  3  4  1  0
  4  5  1  0
  5  6  2  0
M  END
>  <name>  (2) 
Car Nac Nd0 Car Car Car

>  <indices>  (2) 
[0, 1, 2]

>  <dummy>  (2) 
1

>  <tasks>  (2) 
probe_placing close_aromatic_ring close_aromatic_ring

>  <current_task>  (2) 
close_aromatic_ring

>  <prot_clashes>  (2) 
1

>  <NBS phar>  (2) 
0.2

>  <NBS_non-phar>  (2) 
0.8459325790405273

>  <NBS>  (2) 
1.0459325790405274

>  <source_stage>  (2) 
scored

>  <source_iter>  (2) 
2

>  <source_parent_mol>  (2) 
1

>  <source_scenario>  (2) 
0 1

>  <source_rank_in_scored_call>  (2) 
3

>  <source_current_task>  (2) 
close_aromatic_ring

>  <rotatable_bond_torsions>  (2) 
1,0,2,3;0,2,3,4

>  <scenario>  (2) 
0 1

>  <reason_to_skip>  (2) 
incorrect arom ring closing

$$$$

     RDKit          3D

  6  5  0  0  0  0  0  0  0  0999 V2000
  -27.8640   -7.4760  -31.1990 C   0  0  0  0  0  0  0  0  0  0  0  0
  -27.5380   -6.7190  -32.2850 N   0  0  0  0  0  0  0  0  0  0  0  0
  -27.6840   -8.8650  -31.2620 N   0  0  0  0  0  0  0  0  0  0  0  0
  -28.0975   -9.2947  -30.0006 C   0  0  0  0  0  0  0  0  0  0  0  0
  -28.5730   -8.5887  -28.8689 C   0  0  0  0  0  0  0  0  0  0  0  0
  -28.8688   -9.4529  -27.9285 N   0  0  0  0  0  0  0  0  0  0  0  0
  1  2  2  0
  1  3  1  0
  3  4  1  0
  4  5  1  0
  5  6  1  0
M  END
>  <name>  (3) 
Car Nac Nd0 Car Car Nac

>  <indices>  (3) 
[0, 1, 2]

>  <dummy>  (3) 
1

>  <tasks>  (3) 
probe_placing close_aromatic_ring close_aromatic_ring

>  <current_task>  (3) 
close_aromatic_ring

>  <prot_clashes>  (3) 
1

>  <NBS phar>  (3) 
0.2

>  <NBS_non-phar>  (3) 
0.8459325790405273

>  <NBS>  (3) 
1.0459325790405274

>  <source_stage>  (3) 
scored

>  <source_iter>  (3) 
2

>  <source_parent_mol>  (3) 
1

>  <source_scenario>  (3) 
0 1

>  <source_rank_in_scored_call>  (3) 
3

>  <source_current_task>  (3) 
close_aromatic_ring

>  <rotatable_bond_torsions>  (3) 
1,0,2,3;0,2,3,4

>  <scenario>  (3) 
0 1

>  <reason_to_skip>  (3) 
incorrect arom ring closing

$$$$

     RDKit          3D

  6  5  0  0  0  0  0  0  0  0999 V2000
  -27.8640   -7.4760  -31.1990 C   0  0  0  0  0  0  0  0  0  0  0  0
  -27.5380   -6.7190  -32.2850 N   0  0  0  0  0  0  0  0  0  0  0  0
  -27.6840   -8.8650  -31.2620 N   0  0  0  0  0  0  0  0  0  0  0  0
  -28.0975   -9.2947  -30.0006 C   0  0  0  0  0  0  0  0  0  0  0  0
  -28.5730   -8.5887  -28.8689 C   0  0  0  0  0  0  0  0  0  0  0  0
  -28.9152   -9.1625  -27.7278 C   0  0  0  0  0  0  0  0  0  0  0  0
  1  2  2  0
  1  3  1  0
  3  4  1  0
  4  5  1  0
  5  6  1  0
M  END
>  <name>  (4) 
Car Nac Nd0 Car Car Car

>  <indices>  (4) 
[0, 1, 2]

>  <dummy>  (4) 
1

>  <tasks>  (4) 
probe_placing close_aromatic_ring close_aromatic_ring

>  <current_task>  (4) 
close_aromatic_ring

>  <prot_clashes>  (4) 
1

>  <NBS phar>  (4) 
0.2

>  <NBS_non-phar>  (4) 
0.8459325790405273

>  <NBS>  (4) 
1.0459325790405274

>  <source_stage>  (4) 
scored

>  <source_iter>  (4) 
2

>  <source_parent_mol>  (4) 
1

>  <source_scenario>  (4) 
0 1

>  <source_rank_in_scored_call>  (4) 
3

>  <source_current_task>  (4) 
close_aromatic_ring

>  <rotatable_bond_torsions>  (4) 
1,0,2,3;0,2,3,4

>  <scenario>  (4) 
0 1

>  <reason_to_skip>  (4) 
incorrect arom ring closing

$$$$

     RDKit          3D

  6  5  0  0  0  0  0  0  0  0999 V2000
  -27.8640   -7.4760  -31.1990 C   0  0  0  0  0  0  0  0  0  0  0  0
  -27.5380   -6.7190  -32.2850 N   0  0  0  0  0  0  0  0  0  0  0  0
  -27.6840   -8.8650  -31.2620 N   0  0  0  0  0  0  0  0  0  0  0  0
  -28.0975   -9.2947  -30.0006 C   0  0  0  0  0  0  0  0  0  0  0  0
  -28.5730   -8.5887  -28.8689 C   0  0  0  0  0  0  0  0  0  0  0  0
  -28.4412   -7.2723  -29.5486 N   0  0  0  0  0  0  0  0  0  0  0  0
  1  2  2  0
  1  3  1  0
  3  4  1  0
  4  5  1  0
  5  6  1  0
M  END
>  <name>  (5) 
Car Nac Nd0 Car Car Nac

>  <indices>  (5) 
[0, 1, 2]

>  <dummy>  (5) 
1

>  <tasks>  (5) 
probe_placing close_aromatic_ring close_aromatic_ring

>  <current_task>  (5) 
close_aromatic_ring

>  <prot_clashes>  (5) 
1

>  <NBS phar>  (5) 
0.2

>  <NBS_non-phar>  (5) 
0.8459325790405273

>  <NBS>  (5) 
1.0459325790405274

>  <source_stage>  (5) 
scored

>  <source_iter>  (5) 
2

>  <source_parent_mol>  (5) 
1

>  <source_scenario>  (5) 
0 1

>  <source_rank_in_scored_call>  (5) 
3

>  <source_current_task>  (5) 
close_aromatic_ring

>  <rotatable_bond_torsions>  (5) 
1,0,2,3;0,2,3,4

>  <scenario>  (5) 
0 1

>  <reason_to_skip>  (5) 
bad angles

$$$$

     RDKit          3D

  6  5  0  0  0  0  0  0  0  0999 V2000
  -27.8640   -7.4760  -31.1990 C   0  0  0  0  0  0  0  0  0  0  0  0
  -27.5380   -6.7190  -32.2850 N   0  0  0  0  0  0  0  0  0  0  0  0
  -27.6840   -8.8650  -31.2620 N   0  0  0  0  0  0  0  0  0  0  0  0
  -28.0975   -9.2947  -30.0006 C   0  0  0  0  0  0  0  0  0  0  0  0
  -28.5730   -8.5887  -28.8689 C   0  0  0  0  0  0  0  0  0  0  0  0
  -28.5511   -7.2074  -29.1071 N   0  0  0  0  0  0  0  0  0  0  0  0
  1  2  2  0
  1  3  1  0
  3  4  1  0
  4  5  1  0
  5  6  2  0
M  END
>  <name>  (6) 
Car Nac Nd0 Car Car Nac

>  <indices>  (6) 
[0, 1, 2]

>  <dummy>  (6) 
1

>  <tasks>  (6) 
probe_placing close_aromatic_ring close_aromatic_ring

>  <current_task>  (6) 
close_aromatic_ring

>  <prot_clashes>  (6) 
1

>  <NBS phar>  (6) 
0.2

>  <NBS_non-phar>  (6) 
0.8459325790405273

>  <NBS>  (6) 
1.0459325790405274

>  <source_stage>  (6) 
scored

>  <source_iter>  (6) 
2

>  <source_parent_mol>  (6) 
1

>  <source_scenario>  (6) 
0 1

>  <source_rank_in_scored_call>  (6) 
3

>  <source_current_task>  (6) 
close_aromatic_ring

>  <rotatable_bond_torsions>  (6) 
1,0,2,3;0,2,3,4

>  <scenario>  (6) 
0 1

>  <reason_to_skip>  (6) 
incorrect arom ring closing

$$$$

     RDKit          3D

  6  5  0  0  0  0  0  0  0  0999 V2000
  -27.8640   -7.4760  -31.1990 C   0  0  0  0  0  0  0  0  0  0  0  0
  -27.5380   -6.7190  -32.2850 N   0  0  0  0  0  0  0  0  0  0  0  0
  -27.6840   -8.8650  -31.2620 N   0  0  0  0  0  0  0  0  0  0  0  0
  -28.0975   -9.2947  -30.0006 C   0  0  0  0  0  0  0  0  0  0  0  0
  -28.5730   -8.5887  -28.8689 C   0  0  0  0  0  0  0  0  0  0  0  0
  -28.4623   -7.2644  -29.5737 C   0  0  0  0  0  0  0  0  0  0  0  0
  1  2  2  0
  1  3  1  0
  3  4  1  0
  4  5  1  0
  5  6  1  0
M  END
>  <name>  (7) 
Car Nac Nd0 Car Car Car

>  <indices>  (7) 
[0, 1, 2]

>  <dummy>  (7) 
1

>  <tasks>  (7) 
probe_placing close_aromatic_ring close_aromatic_ring

>  <current_task>  (7) 
close_aromatic_ring

>  <prot_clashes>  (7) 
1

>  <NBS phar>  (7) 
0.2

>  <NBS_non-phar>  (7) 
0.8459325790405273

>  <NBS>  (7) 
1.0459325790405274

>  <source_stage>  (7) 
scored

>  <source_iter>  (7) 
2

>  <source_parent_mol>  (7) 
1

>  <source_scenario>  (7) 
0 1

>  <source_rank_in_scored_call>  (7) 
3

>  <source_current_task>  (7) 
close_aromatic_ring

>  <rotatable_bond_torsions>  (7) 
1,0,2,3;0,2,3,4

>  <scenario>  (7) 
0 1

>  <reason_to_skip>  (7) 
bad angles

$$$$

     RDKit          3D

  6  5  0  0  0  0  0  0  0  0999 V2000
  -27.8640   -7.4760  -31.1990 C   0  0  0  0  0  0  0  0  0  0  0  0
  -27.5380   -6.7190  -32.2850 N   0  0  0  0  0  0  0  0  0  0  0  0
  -27.6840   -8.8650  -31.2620 N   0  0  0  0  0  0  0  0  0  0  0  0
  -28.0975   -9.2947  -30.0006 C   0  0  0  0  0  0  0  0  0  0  0  0
  -28.5730   -8.5887  -28.8689 C   0  0  0  0  0  0  0  0  0  0  0  0
  -29.8371   -8.7431  -28.3048 C   0  0  0  0  0  0  0  0  0  0  0  0
  1  2  2  0
  1  3  1  0
  3  4  1  0
  4  5  1  0
  5  6  2  0
M  END
>  <name>  (8) 
Car Nac Nd0 Car Car Car

>  <indices>  (8) 
[0, 1, 2]

>  <dummy>  (8) 
1

>  <tasks>  (8) 
probe_placing close_aromatic_ring close_aromatic_ring

>  <current_task>  (8) 
close_aromatic_ring

>  <prot_clashes>  (8) 
1

>  <NBS phar>  (8) 
0.2

>  <NBS_non-phar>  (8) 
0.8459325790405273

>  <NBS>  (8) 
1.0459325790405274

>  <source_stage>  (8) 
scored

>  <source_iter>  (8) 
2

>  <source_parent_mol>  (8) 
1

>  <source_scenario>  (8) 
0 1

>  <source_rank_in_scored_call>  (8) 
3

>  <source_current_task>  (8) 
close_aromatic_ring

>  <rotatable_bond_torsions>  (8) 
1,0,2,3;0,2,3,4

>  <scenario>  (8) 
0 1

>  <reason_to_skip>  (8) 
incorrect arom ring closing

$$$$

     RDKit          3D

  6  5  0  0  0  0  0  0  0  0999 V2000
  -27.8640   -7.4760  -31.1990 C   0  0  0  0  0  0  0  0  0  0  0  0
  -27.5380   -6.7190  -32.2850 N   0  0  0  0  0  0  0  0  0  0  0  0
  -27.6840   -8.8650  -31.2620 N   0  0  0  0  0  0  0  0  0  0  0  0
  -28.0975   -9.2947  -30.0006 C   0  0  0  0  0  0  0  0  0  0  0  0
  -28.5730   -8.5887  -28.8689 C   0  0  0  0  0  0  0  0  0  0  0  0
    0.0000    0.0000    0.0000 O   0  0  0  0  0  0  0  0  0  0  0  0
  1  2  2  0
  1  3  1  0
  3  4  1  0
  4  5  1  0
  5  6  1  0
M  END
>  <name>  (9) 
Car Nac Nd0 Car Car O_a

>  <indices>  (9) 
[0, 1, 2]

>  <dummy>  (9) 
1

>  <tasks>  (9) 
probe_placing close_aromatic_ring close_aromatic_ring

>  <current_task>  (9) 
close_aromatic_ring

>  <prot_clashes>  (9) 
1

>  <NBS phar>  (9) 
0.2

>  <NBS_non-phar>  (9) 
0.8459325790405273

>  <NBS>  (9) 
1.0459325790405274

>  <source_stage>  (9) 
scored

>  <source_iter>  (9) 
2

>  <source_parent_mol>  (9) 
1

>  <source_scenario>  (9) 
0 1

>  <source_rank_in_scored_call>  (9) 
3

>  <source_current_task>  (9) 
close_aromatic_ring

>  <rotatable_bond_torsions>  (9) 
1,0,2,3;0,2,3,4

>  <scenario>  (9) 
0 1

>  <reason_to_skip>  (9) 
some_atom_counter_exceeded

$$$$

     RDKit          3D

  6  5  0  0  0  0  0  0  0  0999 V2000
  -27.8640   -7.4760  -31.1990 C   0  0  0  0  0  0  0  0  0  0  0  0
  -27.5380   -6.7190  -32.2850 N   0  0  0  0  0  0  0  0  0  0  0  0
  -27.6840   -8.8650  -31.2620 N   0  0  0  0  0  0  0  0  0  0  0  0
  -28.0975   -9.2947  -30.0006 C   0  0  0  0  0  0  0  0  0  0  0  0
  -28.5730   -8.5887  -28.8689 C   0  0  0  0  0  0  0  0  0  0  0  0
  -28.8459   -9.3661  -27.8683 N   0  0  0  0  0  0  0  0  0  0  0  0
  1  2  2  0
  1  3  1  0
  3  4  1  0
  4  5  1  0
  5  6  2  0
M  END
>  <name>  (10) 
Car Nac Nd0 Car Car Nac

>  <indices>  (10) 
[0, 1, 2]

>  <dummy>  (10) 
1

>  <tasks>  (10) 
probe_placing close_aromatic_ring close_aromatic_ring

>  <current_task>  (10) 
close_aromatic_ring

>  <prot_clashes>  (10) 
1

>  <NBS phar>  (10) 
0.2

>  <NBS_non-phar>  (10) 
0.8459325790405273

>  <NBS>  (10) 
1.0459325790405274

>  <source_stage>  (10) 
scored

>  <source_iter>  (10) 
2

>  <source_parent_mol>  (10) 
1

>  <source_scenario>  (10) 
0 1

>  <source_rank_in_scored_call>  (10) 
3

>  <source_current_task>  (10) 
close_aromatic_ring

>  <rotatable_bond_torsions>  (10) 
1,0,2,3;0,2,3,4

>  <scenario>  (10) 
0 1

>  <reason_to_skip>  (10) 
incorrect arom ring closing

$$$$

     RDKit          3D

  6  5  0  0  0  0  0  0  0  0999 V2000
  -27.8640   -7.4760  -31.1990 C   0  0  0  0  0  0  0  0  0  0  0  0
  -27.5380   -6.7190  -32.2850 N   0  0  0  0  0  0  0  0  0  0  0  0
  -27.6840   -8.8650  -31.2620 N   0  0  0  0  0  0  0  0  0  0  0  0
  -28.0975   -9.2947  -30.0006 C   0  0  0  0  0  0  0  0  0  0  0  0
  -28.5730   -8.5887  -28.8689 C   0  0  0  0  0  0  0  0  0  0  0  0
  -28.9827   -8.7520  -27.6870 N   0  0  0  0  0  0  0  0  0  0  0  0
  1  2  2  0
  1  3  1  0
  3  4  1  0
  4  5  1  0
  5  6  1  0
M  END
>  <name>  (11) 
Car Nac Nd0 Car Car Nd0

>  <indices>  (11) 
[0, 1, 2]

>  <dummy>  (11) 
1

>  <tasks>  (11) 
probe_placing close_aromatic_ring close_aromatic_ring

>  <current_task>  (11) 
close_aromatic_ring

>  <prot_clashes>  (11) 
1

>  <NBS phar>  (11) 
0.2

>  <NBS_non-phar>  (11) 
0.8459325790405273

>  <NBS>  (11) 
1.0459325790405274

>  <source_stage>  (11) 
scored

>  <source_iter>  (11) 
2

>  <source_parent_mol>  (11) 
1

>  <source_scenario>  (11) 
0 1

>  <source_rank_in_scored_call>  (11) 
3

>  <source_current_task>  (11) 
close_aromatic_ring

>  <rotatable_bond_torsions>  (11) 
1,0,2,3;0,2,3,4

>  <scenario>  (11) 
0 1

>  <reason_to_skip>  (11) 
bad angles

$$$$

     RDKit          3D

  6  5  0  0  0  0  0  0  0  0999 V2000
  -27.8640   -7.4760  -31.1990 C   0  0  0  0  0  0  0  0  0  0  0  0
  -27.5380   -6.7190  -32.2850 N   0  0  0  0  0  0  0  0  0  0  0  0
  -27.6840   -8.8650  -31.2620 N   0  0  0  0  0  0  0  0  0  0  0  0
  -28.0975   -9.2947  -30.0006 C   0  0  0  0  0  0  0  0  0  0  0  0
  -28.5730   -8.5887  -28.8689 C   0  0  0  0  0  0  0  0  0  0  0  0
  -28.9417   -9.1070  -27.7443 N   0  0  0  0  0  0  0  0  0  0  0  0
  1  2  2  0
  1  3  1  0
  3  4  1  0
  4  5  1  0
  5  6  1  0
M  END
>  <name>  (12) 
Car Nac Nd0 Car Car Nac

>  <indices>  (12) 
[0, 1, 2]

>  <dummy>  (12) 
1

>  <tasks>  (12) 
probe_placing close_aromatic_ring close_aromatic_ring

>  <current_task>  (12) 
close_aromatic_ring

>  <prot_clashes>  (12) 
1

>  <NBS phar>  (12) 
0.2

>  <NBS_non-phar>  (12) 
0.8459325790405273

>  <NBS>  (12) 
1.0459325790405274

>  <source_stage>  (12) 
scored

>  <source_iter>  (12) 
2

>  <source_parent_mol>  (12) 
1

>  <source_scenario>  (12) 
0 1

>  <source_rank_in_scored_call>  (12) 
3

>  <source_current_task>  (12) 
close_aromatic_ring

>  <rotatable_bond_torsions>  (12) 
1,0,2,3;0,2,3,4

>  <scenario>  (12) 
0 1

>  <reason_to_skip>  (12) 
incorrect arom ring closing

$$$$

     RDKit          3D

  6  5  0  0  0  0  0  0  0  0999 V2000
  -27.8640   -7.4760  -31.1990 C   0  0  0  0  0  0  0  0  0  0  0  0
  -27.5380   -6.7190  -32.2850 N   0  0  0  0  0  0  0  0  0  0  0  0
  -27.6840   -8.8650  -31.2620 N   0  0  0  0  0  0  0  0  0  0  0  0
  -28.0975   -9.2947  -30.0006 C   0  0  0  0  0  0  0  0  0  0  0  0
  -28.5730   -8.5887  -28.8689 C   0  0  0  0  0  0  0  0  0  0  0  0
    0.0000    0.0000    0.0000 O   0  0  0  0  0  0  0  0  0  0  0  0
  1  2  2  0
  1  3  1  0
  3  4  1  0
  4  5  1  0
  5  6  1  0
M  END
>  <name>  (13) 
Car Nac Nd0 Car Car O_a

>  <indices>  (13) 
[0, 1, 2]

>  <dummy>  (13) 
1

>  <tasks>  (13) 
probe_placing close_aromatic_ring close_aromatic_ring

>  <current_task>  (13) 
close_aromatic_ring

>  <prot_clashes>  (13) 
1

>  <NBS phar>  (13) 
0.2

>  <NBS_non-phar>  (13) 
0.8459325790405273

>  <NBS>  (13) 
1.0459325790405274

>  <source_stage>  (13) 
scored

>  <source_iter>  (13) 
2

>  <source_parent_mol>  (13) 
1

>  <source_scenario>  (13) 
0 1

>  <source_rank_in_scored_call>  (13) 
3

>  <source_current_task>  (13) 
close_aromatic_ring

>  <rotatable_bond_torsions>  (13) 
1,0,2,3;0,2,3,4

>  <scenario>  (13) 
0 1

>  <reason_to_skip>  (13) 
some_atom_counter_exceeded

$$$$

     RDKit          3D

  6  5  0  0  0  0  0  0  0  0999 V2000
  -27.8640   -7.4760  -31.1990 C   0  0  0  0  0  0  0  0  0  0  0  0
  -27.5380   -6.7190  -32.2850 N   0  0  0  0  0  0  0  0  0  0  0  0
  -27.6840   -8.8650  -31.2620 N   0  0  0  0  0  0  0  0  0  0  0  0
  -28.0975   -9.2947  -30.0006 C   0  0  0  0  0  0  0  0  0  0  0  0
  -28.5730   -8.5887  -28.8689 C   0  0  0  0  0  0  0  0  0  0  0  0
  -29.9587   -8.4975  -28.8901 C   0  0  0  0  0  0  0  0  0  0  0  0
  1  2  2  0
  1  3  1  0
  3  4  1  0
  4  5  1  0
  5  6  1  0
M  END
>  <name>  (14) 
Car Nac Nd0 Car Car Car

>  <indices>  (14) 
[0, 1, 2]

>  <dummy>  (14) 
1

>  <tasks>  (14) 
probe_placing close_aromatic_ring close_aromatic_ring

>  <current_task>  (14) 
close_aromatic_ring

>  <prot_clashes>  (14) 
1

>  <NBS phar>  (14) 
0.2

>  <NBS_non-phar>  (14) 
0.8459325790405273

>  <NBS>  (14) 
1.0459325790405274

>  <source_stage>  (14) 
scored

>  <source_iter>  (14) 
2

>  <source_parent_mol>  (14) 
1

>  <source_scenario>  (14) 
0 1

>  <source_rank_in_scored_call>  (14) 
3

>  <source_current_task>  (14) 
close_aromatic_ring

>  <rotatable_bond_torsions>  (14) 
1,0,2,3;0,2,3,4

>  <scenario>  (14) 
0 1

>  <reason_to_skip>  (14) 
incorrect arom ring closing

$$$$

     RDKit          3D

  6  5  0  0  0  0  0  0  0  0999 V2000
  -27.8640   -7.4760  -31.1990 C   0  0  0  0  0  0  0  0  0  0  0  0
  -27.5380   -6.7190  -32.2850 N   0  0  0  0  0  0  0  0  0  0  0  0
  -27.6840   -8.8650  -31.2620 N   0  0  0  0  0  0  0  0  0  0  0  0
  -28.0975   -9.2947  -30.0006 C   0  0  0  0  0  0  0  0  0  0  0  0
  -28.5730   -8.5887  -28.8689 C   0  0  0  0  0  0  0  0  0  0  0  0
  -28.6306   -7.2241  -29.1367 N   0  0  0  0  0  0  0  0  0  0  0  0
  1  2  2  0
  1  3  1  0
  3  4  1  0
  4  5  1  0
  5  6  1  0
M  END
>  <name>  (15) 
Car Nac Nd0 Car Car Nd0

>  <indices>  (15) 
[0, 1, 2]

>  <dummy>  (15) 
1

>  <tasks>  (15) 
probe_placing close_aromatic_ring close_aromatic_ring

>  <current_task>  (15) 
close_aromatic_ring

>  <prot_clashes>  (15) 
1

>  <NBS phar>  (15) 
0.2

>  <NBS_non-phar>  (15) 
0.8459325790405273

>  <NBS>  (15) 
1.0459325790405274

>  <source_stage>  (15) 
scored

>  <source_iter>  (15) 
2

>  <source_parent_mol>  (15) 
1

>  <source_scenario>  (15) 
0 1

>  <source_rank_in_scored_call>  (15) 
3

>  <source_current_task>  (15) 
close_aromatic_ring

>  <rotatable_bond_torsions>  (15) 
1,0,2,3;0,2,3,4

>  <scenario>  (15) 
0 1

>  <reason_to_skip>  (15) 
incorrect arom ring closing

$$$$

     RDKit          3D

  6  5  0  0  0  0  0  0  0  0999 V2000
  -27.8640   -7.4760  -31.1990 C   0  0  0  0  0  0  0  0  0  0  0  0
  -27.5380   -6.7190  -32.2850 N   0  0  0  0  0  0  0  0  0  0  0  0
  -27.6840   -8.8650  -31.2620 N   0  0  0  0  0  0  0  0  0  0  0  0
  -28.0975   -9.2947  -30.0006 C   0  0  0  0  0  0  0  0  0  0  0  0
  -28.5730   -8.5887  -28.8689 C   0  0  0  0  0  0  0  0  0  0  0  0
  -28.9219   -9.1069  -27.8140 N   0  0  0  0  0  0  0  0  0  0  0  0
  1  2  2  0
  1  3  1  0
  3  4  1  0
  4  5  1  0
  5  6  1  0
M  END
>  <name>  (16) 
Car Nac Nd0 Car Car Nd0

>  <indices>  (16) 
[0, 1, 2]

>  <dummy>  (16) 
1

>  <tasks>  (16) 
probe_placing close_aromatic_ring close_aromatic_ring

>  <current_task>  (16) 
close_aromatic_ring

>  <prot_clashes>  (16) 
1

>  <NBS phar>  (16) 
0.2

>  <NBS_non-phar>  (16) 
0.8459325790405273

>  <NBS>  (16) 
1.0459325790405274

>  <source_stage>  (16) 
scored

>  <source_iter>  (16) 
2

>  <source_parent_mol>  (16) 
1

>  <source_scenario>  (16) 
0 1

>  <source_rank_in_scored_call>  (16) 
3

>  <source_current_task>  (16) 
close_aromatic_ring

>  <rotatable_bond_torsions>  (16) 
1,0,2,3;0,2,3,4

>  <scenario>  (16) 
0 1

>  <reason_to_skip>  (16) 
incorrect arom ring closing

$$$$

     RDKit          3D

  6  5  0  0  0  0  0  0  0  0999 V2000
  -27.8640   -7.4760  -31.1990 C   0  0  0  0  0  0  0  0  0  0  0  0
  -27.5380   -6.7190  -32.2850 N   0  0  0  0  0  0  0  0  0  0  0  0
  -27.6840   -8.8650  -31.2620 N   0  0  0  0  0  0  0  0  0  0  0  0
  -28.0975   -9.2947  -30.0006 C   0  0  0  0  0  0  0  0  0  0  0  0
  -28.5730   -8.5887  -28.8689 C   0  0  0  0  0  0  0  0  0  0  0  0
    0.0000    0.0000    0.0000 S   0  0  0  0  0  0  0  0  0  0  0  0
  1  2  2  0
  1  3  1  0
  3  4  1  0
  4  5  1  0
  5  6  1  0
M  END
>  <name>  (17) 
Car Nac Nd0 Car Car Sul

>  <indices>  (17) 
[0, 1, 2]

>  <dummy>  (17) 
1

>  <tasks>  (17) 
probe_placing close_aromatic_ring close_aromatic_ring

>  <current_task>  (17) 
close_aromatic_ring

>  <prot_clashes>  (17) 
1

>  <NBS phar>  (17) 
0.2

>  <NBS_non-phar>  (17) 
0.8459325790405273

>  <NBS>  (17) 
1.0459325790405274

>  <source_stage>  (17) 
scored

>  <source_iter>  (17) 
2

>  <source_parent_mol>  (17) 
1

>  <source_scenario>  (17) 
0 1

>  <source_rank_in_scored_call>  (17) 
3

>  <source_current_task>  (17) 
close_aromatic_ring

>  <rotatable_bond_torsions>  (17) 
1,0,2,3;0,2,3,4

>  <scenario>  (17) 
0 1

>  <reason_to_skip>  (17) 
some_atom_counter_exceeded

$$$$

     RDKit          3D

  6  5  0  0  0  0  0  0  0  0999 V2000
  -27.8640   -7.4760  -31.1990 C   0  0  0  0  0  0  0  0  0  0  0  0
  -27.5380   -6.7190  -32.2850 N   0  0  0  0  0  0  0  0  0  0  0  0
  -27.6840   -8.8650  -31.2620 N   0  0  0  0  0  0  0  0  0  0  0  0
  -28.0975   -9.2947  -30.0006 C   0  0  0  0  0  0  0  0  0  0  0  0
  -28.5730   -8.5887  -28.8689 C   0  0  0  0  0  0  0  0  0  0  0  0
  -29.9337   -8.4856  -28.5458 C   0  0  0  0  0  0  0  0  0  0  0  0
  1  2  2  0
  1  3  1  0
  3  4  1  0
  4  5  1  0
  5  6  1  0
M  END
>  <name>  (18) 
Car Nac Nd0 Car Car Car

>  <indices>  (18) 
[0, 1, 2]

>  <dummy>  (18) 
1

>  <tasks>  (18) 
probe_placing close_aromatic_ring close_aromatic_ring

>  <current_task>  (18) 
close_aromatic_ring

>  <prot_clashes>  (18) 
1

>  <NBS phar>  (18) 
0.2

>  <NBS_non-phar>  (18) 
0.8459325790405273

>  <NBS>  (18) 
1.0459325790405274

>  <source_stage>  (18) 
scored

>  <source_iter>  (18) 
2

>  <source_parent_mol>  (18) 
1

>  <source_scenario>  (18) 
0 1

>  <source_rank_in_scored_call>  (18) 
3

>  <source_current_task>  (18) 
close_aromatic_ring

>  <rotatable_bond_torsions>  (18) 
1,0,2,3;0,2,3,4

>  <scenario>  (18) 
0 1

>  <reason_to_skip>  (18) 
incorrect arom ring closing

$$$$

     RDKit          3D

  6  5  0  0  0  0  0  0  0  0999 V2000
  -27.8640   -7.4760  -31.1990 C   0  0  0  0  0  0  0  0  0  0  0  0
  -27.5380   -6.7190  -32.2850 N   0  0  0  0  0  0  0  0  0  0  0  0
  -27.6840   -8.8650  -31.2620 N   0  0  0  0  0  0  0  0  0  0  0  0
  -28.0975   -9.2947  -30.0006 C   0  0  0  0  0  0  0  0  0  0  0  0
  -28.5730   -8.5887  -28.8689 C   0  0  0  0  0  0  0  0  0  0  0  0
    0.0000    0.0000    0.0000 O   0  0  0  0  0  0  0  0  0  0  0  0
  1  2  2  0
  1  3  1  0
  3  4  1  0
  4  5  1  0
  5  6  1  0
M  END
>  <name>  (19) 
Car Nac Nd0 Car Car O_a

>  <indices>  (19) 
[0, 1, 2]

>  <dummy>  (19) 
1

>  <tasks>  (19) 
probe_placing close_aromatic_ring close_aromatic_ring

>  <current_task>  (19) 
close_aromatic_ring

>  <prot_clashes>  (19) 
1

>  <NBS phar>  (19) 
0.2

>  <NBS_non-phar>  (19) 
0.8459325790405273

>  <NBS>  (19) 
1.0459325790405274

>  <source_stage>  (19) 
scored

>  <source_iter>  (19) 
2

>  <source_parent_mol>  (19) 
1

>  <source_scenario>  (19) 
0 1

>  <source_rank_in_scored_call>  (19) 
3

>  <source_current_task>  (19) 
close_aromatic_ring

>  <rotatable_bond_torsions>  (19) 
1,0,2,3;0,2,3,4

>  <scenario>  (19) 
0 1

>  <reason_to_skip>  (19) 
some_atom_counter_exceeded

$$$$

     RDKit          3D

  6  5  0  0  0  0  0  0  0  0999 V2000
  -27.8640   -7.4760  -31.1990 C   0  0  0  0  0  0  0  0  0  0  0  0
  -27.5380   -6.7190  -32.2850 N   0  0  0  0  0  0  0  0  0  0  0  0
  -27.6840   -8.8650  -31.2620 N   0  0  0  0  0  0  0  0  0  0  0  0
  -28.0975   -9.2947  -30.0006 C   0  0  0  0  0  0  0  0  0  0  0  0
  -28.5730   -8.5887  -28.8689 C   0  0  0  0  0  0  0  0  0  0  0  0
    0.0000    0.0000    0.0000 S   0  0  0  0  0  0  0  0  0  0  0  0
  1  2  2  0
  1  3  1  0
  3  4  1  0
  4  5  1  0
  5  6  1  0
M  END
>  <name>  (20) 
Car Nac Nd0 Car Car Sul

>  <indices>  (20) 
[0, 1, 2]

>  <dummy>  (20) 
1

>  <tasks>  (20) 
probe_placing close_aromatic_ring close_aromatic_ring

>  <current_task>  (20) 
close_aromatic_ring

>  <prot_clashes>  (20) 
1

>  <NBS phar>  (20) 
0.2

>  <NBS_non-phar>  (20) 
0.8459325790405273

>  <NBS>  (20) 
1.0459325790405274

>  <source_stage>  (20) 
scored

>  <source_iter>  (20) 
2

>  <source_parent_mol>  (20) 
1

>  <source_scenario>  (20) 
0 1

>  <source_rank_in_scored_call>  (20) 
3

>  <source_current_task>  (20) 
close_aromatic_ring

>  <rotatable_bond_torsions>  (20) 
1,0,2,3;0,2,3,4

>  <scenario>  (20) 
0 1

>  <reason_to_skip>  (20) 
some_atom_counter_exceeded

$$$$

     RDKit          3D

  6  5  0  0  0  0  0  0  0  0999 V2000
  -27.8640   -7.4760  -31.1990 C   0  0  0  0  0  0  0  0  0  0  0  0
  -27.5380   -6.7190  -32.2850 N   0  0  0  0  0  0  0  0  0  0  0  0
  -27.6840   -8.8650  -31.2620 N   0  0  0  0  0  0  0  0  0  0  0  0
  -28.0975   -9.2947  -30.0006 C   0  0  0  0  0  0  0  0  0  0  0  0
  -28.5730   -8.5887  -28.8689 C   0  0  0  0  0  0  0  0  0  0  0  0
    0.0000    0.0000    0.0000 S   0  0  0  0  0  0  0  0  0  0  0  0
  1  2  2  0
  1  3  1  0
  3  4  1  0
  4  5  1  0
  5  6  1  0
M  END
>  <name>  (21) 
Car Nac Nd0 Car Car Sul

>  <indices>  (21) 
[0, 1, 2]

>  <dummy>  (21) 
1

>  <tasks>  (21) 
probe_placing close_aromatic_ring close_aromatic_ring

>  <current_task>  (21) 
close_aromatic_ring

>  <prot_clashes>  (21) 
1

>  <NBS phar>  (21) 
0.2

>  <NBS_non-phar>  (21) 
0.8459325790405273

>  <NBS>  (21) 
1.0459325790405274

>  <source_stage>  (21) 
scored

>  <source_iter>  (21) 
2

>  <source_parent_mol>  (21) 
1

>  <source_scenario>  (21) 
0 1

>  <source_rank_in_scored_call>  (21) 
3

>  <source_current_task>  (21) 
close_aromatic_ring

>  <rotatable_bond_torsions>  (21) 
1,0,2,3;0,2,3,4

>  <scenario>  (21) 
0 1

>  <reason_to_skip>  (21) 
some_atom_counter_exceeded

$$$$

     RDKit          3D

  6  5  0  0  0  0  0  0  0  0999 V2000
  -27.8640   -7.4760  -31.1990 C   0  0  0  0  0  0  0  0  0  0  0  0
  -27.5380   -6.7190  -32.2850 N   0  0  0  0  0  0  0  0  0  0  0  0
  -27.6840   -8.8650  -31.2620 N   0  0  0  0  0  0  0  0  0  0  0  0
  -28.0975   -9.2947  -30.0006 C   0  0  0  0  0  0  0  0  0  0  0  0
  -28.5730   -8.5887  -28.8689 C   0  0  0  0  0  0  0  0  0  0  0  0
  -27.7621   -8.5161  -27.8224 C   0  0  0  0  0  0  0  0  0  0  0  0
  1  2  2  0
  1  3  1  0
  3  4  1  0
  4  5  1  0
  5  6  2  0
M  END
>  <name>  (22) 
Car Nac Nd0 Car Car Car

>  <indices>  (22) 
[0, 1, 2]

>  <dummy>  (22) 
1

>  <tasks>  (22) 
probe_placing close_aromatic_ring close_aromatic_ring

>  <current_task>  (22) 
close_aromatic_ring

>  <prot_clashes>  (22) 
1

>  <NBS phar>  (22) 
0.2

>  <NBS_non-phar>  (22) 
0.8459325790405273

>  <NBS>  (22) 
1.0459325790405274

>  <source_stage>  (22) 
scored

>  <source_iter>  (22) 
2

>  <source_parent_mol>  (22) 
1

>  <source_scenario>  (22) 
0 1

>  <source_rank_in_scored_call>  (22) 
3

>  <source_current_task>  (22) 
close_aromatic_ring

>  <rotatable_bond_torsions>  (22) 
1,0,2,3;0,2,3,4

>  <scenario>  (22) 
0 1

>  <reason_to_skip>  (22) 
incorrect arom ring closing

$$$$

     RDKit          3D

  6  5  0  0  0  0  0  0  0  0999 V2000
  -27.8640   -7.4760  -31.1990 C   0  0  0  0  0  0  0  0  0  0  0  0
  -27.5380   -6.7190  -32.2850 N   0  0  0  0  0  0  0  0  0  0  0  0
  -27.6840   -8.8650  -31.2620 N   0  0  0  0  0  0  0  0  0  0  0  0
  -28.0975   -9.2947  -30.0006 C   0  0  0  0  0  0  0  0  0  0  0  0
  -28.5730   -8.5887  -28.8689 C   0  0  0  0  0  0  0  0  0  0  0  0
    0.0000    0.0000    0.0000 S   0  0  0  0  0  0  0  0  0  0  0  0
  1  2  2  0
  1  3  1  0
  3  4  1  0
  4  5  1  0
  5  6  1  0
M  END
>  <name>  (23) 
Car Nac Nd0 Car Car Sul

>  <indices>  (23) 
[0, 1, 2]

>  <dummy>  (23) 
1

>  <tasks>  (23) 
probe_placing close_aromatic_ring close_aromatic_ring

>  <current_task>  (23) 
close_aromatic_ring

>  <prot_clashes>  (23) 
1

>  <NBS phar>  (23) 
0.2

>  <NBS_non-phar>  (23) 
0.8459325790405273

>  <NBS>  (23) 
1.0459325790405274

>  <source_stage>  (23) 
scored

>  <source_iter>  (23) 
2

>  <source_parent_mol>  (23) 
1

>  <source_scenario>  (23) 
0 1

>  <source_rank_in_scored_call>  (23) 
3

>  <source_current_task>  (23) 
close_aromatic_ring

>  <rotatable_bond_torsions>  (23) 
1,0,2,3;0,2,3,4

>  <scenario>  (23) 
0 1

>  <reason_to_skip>  (23) 
some_atom_counter_exceeded

$$$$

     RDKit          3D

  6  5  0  0  0  0  0  0  0  0999 V2000
  -27.8640   -7.4760  -31.1990 C   0  0  0  0  0  0  0  0  0  0  0  0
  -27.5380   -6.7190  -32.2850 N   0  0  0  0  0  0  0  0  0  0  0  0
  -27.6840   -8.8650  -31.2620 N   0  0  0  0  0  0  0  0  0  0  0  0
  -28.0975   -9.2947  -30.0006 C   0  0  0  0  0  0  0  0  0  0  0  0
  -28.5730   -8.5887  -28.8689 C   0  0  0  0  0  0  0  0  0  0  0  0
    0.0000    0.0000    0.0000 O   0  0  0  0  0  0  0  0  0  0  0  0
  1  2  2  0
  1  3  1  0
  3  4  1  0
  4  5  1  0
  5  6  1  0
M  END
>  <name>  (24) 
Car Nac Nd0 Car Car O_a

>  <indices>  (24) 
[0, 1, 2]

>  <dummy>  (24) 
1

>  <tasks>  (24) 
probe_placing close_aromatic_ring close_aromatic_ring

>  <current_task>  (24) 
close_aromatic_ring

>  <prot_clashes>  (24) 
1

>  <NBS phar>  (24) 
0.2

>  <NBS_non-phar>  (24) 
0.8459325790405273

>  <NBS>  (24) 
1.0459325790405274

>  <source_stage>  (24) 
scored

>  <source_iter>  (24) 
2

>  <source_parent_mol>  (24) 
1

>  <source_scenario>  (24) 
0 1

>  <source_rank_in_scored_call>  (24) 
3

>  <source_current_task>  (24) 
close_aromatic_ring

>  <rotatable_bond_torsions>  (24) 
1,0,2,3;0,2,3,4

>  <scenario>  (24) 
0 1

>  <reason_to_skip>  (24) 
some_atom_counter_exceeded

$$$$

     RDKit          3D

  6  5  0  0  0  0  0  0  0  0999 V2000
  -27.8640   -7.4760  -31.1990 C   0  0  0  0  0  0  0  0  0  0  0  0
  -27.5380   -6.7190  -32.2850 N   0  0  0  0  0  0  0  0  0  0  0  0
  -27.6840   -8.8650  -31.2620 N   0  0  0  0  0  0  0  0  0  0  0  0
  -28.0975   -9.2947  -30.0006 C   0  0  0  0  0  0  0  0  0  0  0  0
  -28.5730   -8.5887  -28.8689 C   0  0  0  0  0  0  0  0  0  0  0  0
    0.0000    0.0000    0.0000 S   0  0  0  0  0  0  0  0  0  0  0  0
  1  2  2  0
  1  3  1  0
  3  4  1  0
  4  5  1  0
  5  6  1  0
M  END
>  <name>  (25) 
Car Nac Nd0 Car Car Sul

>  <indices>  (25) 
[0, 1, 2]

>  <dummy>  (25) 
1

>  <tasks>  (25) 
probe_placing close_aromatic_ring close_aromatic_ring

>  <current_task>  (25) 
close_aromatic_ring

>  <prot_clashes>  (25) 
1

>  <NBS phar>  (25) 
0.2

>  <NBS_non-phar>  (25) 
0.8459325790405273

>  <NBS>  (25) 
1.0459325790405274

>  <source_stage>  (25) 
scored

>  <source_iter>  (25) 
2

>  <source_parent_mol>  (25) 
1

>  <source_scenario>  (25) 
0 1

>  <source_rank_in_scored_call>  (25) 
3

>  <source_current_task>  (25) 
close_aromatic_ring

>  <rotatable_bond_torsions>  (25) 
1,0,2,3;0,2,3,4

>  <scenario>  (25) 
0 1

>  <reason_to_skip>  (25) 
some_atom_counter_exceeded

$$$$

     RDKit          3D

  6  5  0  0  0  0  0  0  0  0999 V2000
  -27.8640   -7.4760  -31.1990 C   0  0  0  0  0  0  0  0  0  0  0  0
  -27.5380   -6.7190  -32.2850 N   0  0  0  0  0  0  0  0  0  0  0  0
  -27.6840   -8.8650  -31.2620 N   0  0  0  0  0  0  0  0  0  0  0  0
  -28.0975   -9.2947  -30.0006 C   0  0  0  0  0  0  0  0  0  0  0  0
  -28.5730   -8.5887  -28.8689 C   0  0  0  0  0  0  0  0  0  0  0  0
    0.0000    0.0000    0.0000 S   0  0  0  0  0  0  0  0  0  0  0  0
  1  2  2  0
  1  3  1  0
  3  4  1  0
  4  5  1  0
  5  6  1  0
M  END
>  <name>  (26) 
Car Nac Nd0 Car Car Sul

>  <indices>  (26) 
[0, 1, 2]

>  <dummy>  (26) 
1

>  <tasks>  (26) 
probe_placing close_aromatic_ring close_aromatic_ring

>  <current_task>  (26) 
close_aromatic_ring

>  <prot_clashes>  (26) 
1

>  <NBS phar>  (26) 
0.2

>  <NBS_non-phar>  (26) 
0.8459325790405273

>  <NBS>  (26) 
1.0459325790405274

>  <source_stage>  (26) 
scored

>  <source_iter>  (26) 
2

>  <source_parent_mol>  (26) 
1

>  <source_scenario>  (26) 
0 1

>  <source_rank_in_scored_call>  (26) 
3

>  <source_current_task>  (26) 
close_aromatic_ring

>  <rotatable_bond_torsions>  (26) 
1,0,2,3;0,2,3,4

>  <scenario>  (26) 
0 1

>  <reason_to_skip>  (26) 
some_atom_counter_exceeded

$$$$

     RDKit          3D

  6  5  0  0  0  0  0  0  0  0999 V2000
  -27.8640   -7.4760  -31.1990 C   0  0  0  0  0  0  0  0  0  0  0  0
  -27.5380   -6.7190  -32.2850 N   0  0  0  0  0  0  0  0  0  0  0  0
  -27.6840   -8.8650  -31.2620 N   0  0  0  0  0  0  0  0  0  0  0  0
  -28.0975   -9.2947  -30.0006 C   0  0  0  0  0  0  0  0  0  0  0  0
  -28.5730   -8.5887  -28.8689 C   0  0  0  0  0  0  0  0  0  0  0  0
  -27.8701   -8.5147  -27.7225 C   0  0  0  0  0  0  0  0  0  0  0  0
  1  2  2  0
  1  3  1  0
  3  4  1  0
  4  5  1  0
  5  6  1  0
M  END
>  <name>  (27) 
Car Nac Nd0 Car Car Car

>  <indices>  (27) 
[0, 1, 2]

>  <dummy>  (27) 
1

>  <tasks>  (27) 
probe_placing close_aromatic_ring close_aromatic_ring

>  <current_task>  (27) 
close_aromatic_ring

>  <prot_clashes>  (27) 
1

>  <NBS phar>  (27) 
0.2

>  <NBS_non-phar>  (27) 
0.8459325790405273

>  <NBS>  (27) 
1.0459325790405274

>  <source_stage>  (27) 
scored

>  <source_iter>  (27) 
2

>  <source_parent_mol>  (27) 
1

>  <source_scenario>  (27) 
0 1

>  <source_rank_in_scored_call>  (27) 
3

>  <source_current_task>  (27) 
close_aromatic_ring

>  <rotatable_bond_torsions>  (27) 
1,0,2,3;0,2,3,4

>  <scenario>  (27) 
0 1

>  <reason_to_skip>  (27) 
incorrect arom ring closing

$$$$

     RDKit          3D

  6  5  0  0  0  0  0  0  0  0999 V2000
  -27.8640   -7.4760  -31.1990 C   0  0  0  0  0  0  0  0  0  0  0  0
  -27.5380   -6.7190  -32.2850 N   0  0  0  0  0  0  0  0  0  0  0  0
  -27.6840   -8.8650  -31.2620 N   0  0  0  0  0  0  0  0  0  0  0  0
  -28.0975   -9.2947  -30.0006 C   0  0  0  0  0  0  0  0  0  0  0  0
  -28.5730   -8.5887  -28.8689 C   0  0  0  0  0  0  0  0  0  0  0  0
  -27.5284   -8.0427  -27.9012 C   0  0  0  0  0  0  0  0  0  0  0  0
  1  2  2  0
  1  3  1  0
  3  4  1  0
  4  5  1  0
  5  6  1  0
M  END
>  <name>  (28) 
Car Nac Nd0 Car Car Car

>  <indices>  (28) 
[0, 1, 2]

>  <dummy>  (28) 
1

>  <tasks>  (28) 
probe_placing close_aromatic_ring close_aromatic_ring

>  <current_task>  (28) 
close_aromatic_ring

>  <prot_clashes>  (28) 
1

>  <NBS phar>  (28) 
0.2

>  <NBS_non-phar>  (28) 
0.8459325790405273

>  <NBS>  (28) 
1.0459325790405274

>  <source_stage>  (28) 
scored

>  <source_iter>  (28) 
2

>  <source_parent_mol>  (28) 
1

>  <source_scenario>  (28) 
0 1

>  <source_rank_in_scored_call>  (28) 
3

>  <source_current_task>  (28) 
close_aromatic_ring

>  <rotatable_bond_torsions>  (28) 
1,0,2,3;0,2,3,4

>  <scenario>  (28) 
0 1

>  <reason_to_skip>  (28) 
incorrect arom ring closing

$$$$

     RDKit          3D

  6  5  0  0  0  0  0  0  0  0999 V2000
  -27.8640   -7.4760  -31.1990 C   0  0  0  0  0  0  0  0  0  0  0  0
  -27.5380   -6.7190  -32.2850 N   0  0  0  0  0  0  0  0  0  0  0  0
  -27.6840   -8.8650  -31.2620 N   0  0  0  0  0  0  0  0  0  0  0  0
  -28.0975   -9.2947  -30.0006 C   0  0  0  0  0  0  0  0  0  0  0  0
  -28.5730   -8.5887  -28.8689 C   0  0  0  0  0  0  0  0  0  0  0  0
  -28.7431   -7.2047  -28.7739 N   0  0  0  0  0  0  0  0  0  0  0  0
  1  2  2  0
  1  3  1  0
  3  4  1  0
  4  5  1  0
  5  6  1  0
M  END
>  <name>  (29) 
Car Nac Nd0 Car Car Nac

>  <indices>  (29) 
[0, 1, 2]

>  <dummy>  (29) 
1

>  <tasks>  (29) 
probe_placing close_aromatic_ring close_aromatic_ring

>  <current_task>  (29) 
close_aromatic_ring

>  <prot_clashes>  (29) 
1

>  <NBS phar>  (29) 
0.2

>  <NBS_non-phar>  (29) 
0.8459325790405273

>  <NBS>  (29) 
1.0459325790405274

>  <source_stage>  (29) 
scored

>  <source_iter>  (29) 
2

>  <source_parent_mol>  (29) 
1

>  <source_scenario>  (29) 
0 1

>  <source_rank_in_scored_call>  (29) 
3

>  <source_current_task>  (29) 
close_aromatic_ring

>  <rotatable_bond_torsions>  (29) 
1,0,2,3;0,2,3,4

>  <scenario>  (29) 
0 1

>  <reason_to_skip>  (29) 
subgraph mismatch

$$$$

     RDKit          3D

  6  5  0  0  0  0  0  0  0  0999 V2000
  -27.8640   -7.4760  -31.1990 C   0  0  0  0  0  0  0  0  0  0  0  0
  -27.5380   -6.7190  -32.2850 N   0  0  0  0  0  0  0  0  0  0  0  0
  -27.6840   -8.8650  -31.2620 N   0  0  0  0  0  0  0  0  0  0  0  0
  -28.0975   -9.2947  -30.0006 C   0  0  0  0  0  0  0  0  0  0  0  0
  -28.5730   -8.5887  -28.8689 C   0  0  0  0  0  0  0  0  0  0  0  0
  -28.7712   -7.1277  -28.7929 C   0  0  0  0  0  0  0  0  0  0  0  0
  1  2  2  0
  1  3  1  0
  3  4  1  0
  4  5  1  0
  5  6  1  0
M  END
>  <name>  (30) 
Car Nac Nd0 Car Car Car

>  <indices>  (30) 
[0, 1, 2]

>  <dummy>  (30) 
1

>  <tasks>  (30) 
probe_placing close_aromatic_ring close_aromatic_ring

>  <current_task>  (30) 
close_aromatic_ring

>  <prot_clashes>  (30) 
1

>  <NBS phar>  (30) 
0.2

>  <NBS_non-phar>  (30) 
0.8459325790405273

>  <NBS>  (30) 
1.0459325790405274

>  <source_stage>  (30) 
scored

>  <source_iter>  (30) 
2

>  <source_parent_mol>  (30) 
1

>  <source_scenario>  (30) 
0 1

>  <source_rank_in_scored_call>  (30) 
3

>  <source_current_task>  (30) 
close_aromatic_ring

>  <rotatable_bond_torsions>  (30) 
1,0,2,3;0,2,3,4

>  <scenario>  (30) 
0 1

>  <reason_to_skip>  (30) 
subgraph mismatch

$$$$

     RDKit          3D

  6  5  0  0  0  0  0  0  0  0999 V2000
  -27.8640   -7.4760  -31.1990 C   0  0  0  0  0  0  0  0  0  0  0  0
  -27.5380   -6.7190  -32.2850 N   0  0  0  0  0  0  0  0  0  0  0  0
  -27.6840   -8.8650  -31.2620 N   0  0  0  0  0  0  0  0  0  0  0  0
  -28.0975   -9.2947  -30.0006 C   0  0  0  0  0  0  0  0  0  0  0  0
  -28.5730   -8.5887  -28.8689 C   0  0  0  0  0  0  0  0  0  0  0  0
  -28.6648   -7.1817  -28.9862 C   0  0  0  0  0  0  0  0  0  0  0  0
  1  2  2  0
  1  3  1  0
  3  4  1  0
  4  5  1  0
  5  6  1  0
M  END
>  <name>  (31) 
Car Nac Nd0 Car Car Car

>  <indices>  (31) 
[0, 1, 2]

>  <dummy>  (31) 
1

>  <tasks>  (31) 
probe_placing close_aromatic_ring close_aromatic_ring

>  <current_task>  (31) 
close_aromatic_ring

>  <prot_clashes>  (31) 
1

>  <NBS phar>  (31) 
0.2

>  <NBS_non-phar>  (31) 
0.8459325790405273

>  <NBS>  (31) 
1.0459325790405274

>  <source_stage>  (31) 
scored

>  <source_iter>  (31) 
2

>  <source_parent_mol>  (31) 
1

>  <source_scenario>  (31) 
0 1

>  <source_rank_in_scored_call>  (31) 
3

>  <source_current_task>  (31) 
close_aromatic_ring

>  <rotatable_bond_torsions>  (31) 
1,0,2,3;0,2,3,4

>  <scenario>  (31) 
0 1

>  <reason_to_skip>  (31) 
subgraph mismatch

$$$$

     RDKit          3D

  6  5  0  0  0  0  0  0  0  0999 V2000
  -27.8640   -7.4760  -31.1990 C   0  0  0  0  0  0  0  0  0  0  0  0
  -27.5380   -6.7190  -32.2850 N   0  0  0  0  0  0  0  0  0  0  0  0
  -27.6840   -8.8650  -31.2620 N   0  0  0  0  0  0  0  0  0  0  0  0
  -28.0975   -9.2947  -30.0006 C   0  0  0  0  0  0  0  0  0  0  0  0
  -28.5730   -8.5887  -28.8689 C   0  0  0  0  0  0  0  0  0  0  0  0
  -28.6382   -7.1573  -29.0578 C   0  0  0  0  0  0  0  0  0  0  0  0
  1  2  2  0
  1  3  1  0
  3  4  1  0
  4  5  1  0
  5  6  2  0
M  END
>  <name>  (32) 
Car Nac Nd0 Car Car Car

>  <indices>  (32) 
[0, 1, 2]

>  <dummy>  (32) 
1

>  <tasks>  (32) 
probe_placing close_aromatic_ring close_aromatic_ring

>  <current_task>  (32) 
close_aromatic_ring

>  <prot_clashes>  (32) 
1

>  <NBS phar>  (32) 
0.2

>  <NBS_non-phar>  (32) 
0.8459325790405273

>  <NBS>  (32) 
1.0459325790405274

>  <source_stage>  (32) 
scored

>  <source_iter>  (32) 
2

>  <source_parent_mol>  (32) 
1

>  <source_scenario>  (32) 
0 1

>  <source_rank_in_scored_call>  (32) 
3

>  <source_current_task>  (32) 
close_aromatic_ring

>  <rotatable_bond_torsions>  (32) 
1,0,2,3;0,2,3,4

>  <scenario>  (32) 
0 1

>  <reason_to_skip>  (32) 
subgraph mismatch

$$$$

     RDKit          3D

  6  5  0  0  0  0  0  0  0  0999 V2000
  -27.8640   -7.4760  -31.1990 C   0  0  0  0  0  0  0  0  0  0  0  0
  -27.5380   -6.7190  -32.2850 N   0  0  0  0  0  0  0  0  0  0  0  0
  -27.6840   -8.8650  -31.2620 N   0  0  0  0  0  0  0  0  0  0  0  0
  -28.0975   -9.2947  -30.0006 C   0  0  0  0  0  0  0  0  0  0  0  0
  -28.5730   -8.5887  -28.8689 C   0  0  0  0  0  0  0  0  0  0  0  0
  -28.7708   -7.2732  -28.7997 N   0  0  0  0  0  0  0  0  0  0  0  0
  1  2  2  0
  1  3  1  0
  3  4  1  0
  4  5  1  0
  5  6  1  0
M  END
>  <name>  (33) 
Car Nac Nd0 Car Car Nd0

>  <indices>  (33) 
[0, 1, 2]

>  <dummy>  (33) 
1

>  <tasks>  (33) 
probe_placing close_aromatic_ring close_aromatic_ring

>  <current_task>  (33) 
close_aromatic_ring

>  <prot_clashes>  (33) 
1

>  <NBS phar>  (33) 
0.2

>  <NBS_non-phar>  (33) 
0.8459325790405273

>  <NBS>  (33) 
1.0459325790405274

>  <source_stage>  (33) 
scored

>  <source_iter>  (33) 
2

>  <source_parent_mol>  (33) 
1

>  <source_scenario>  (33) 
0 1

>  <source_rank_in_scored_call>  (33) 
3

>  <source_current_task>  (33) 
close_aromatic_ring

>  <rotatable_bond_torsions>  (33) 
1,0,2,3;0,2,3,4

>  <scenario>  (33) 
0 1

>  <reason_to_skip>  (33) 
subgraph mismatch

$$$$

     RDKit          3D

  6  5  0  0  0  0  0  0  0  0999 V2000
  -27.8640   -7.4760  -31.1990 C   0  0  0  0  0  0  0  0  0  0  0  0
  -27.5380   -6.7190  -32.2850 N   0  0  0  0  0  0  0  0  0  0  0  0
  -27.6840   -8.8650  -31.2620 N   0  0  0  0  0  0  0  0  0  0  0  0
  -28.0975   -9.2947  -30.0006 C   0  0  0  0  0  0  0  0  0  0  0  0
  -29.2272  -10.2496  -29.9098 C   0  0  0  0  0  0  0  0  0  0  0  0
  -29.6513  -10.7997  -28.5919 C   0  0  0  0  0  0  0  0  0  0  0  0
  1  2  2  0
  1  3  1  0
  3  4  1  0
  4  5  2  3
  5  6  1  0
M  END
>  <name>  (1) 
Car Nac Nd0 Car Car Car

>  <indices>  (1) 
[0, 1, 2]

>  <dummy>  (1) 
1

>  <tasks>  (1) 
probe_placing close_aromatic_ring close_aromatic_ring

>  <current_task>  (1) 
close_aromatic_ring

>  <prot_clashes>  (1) 
0

>  <NBS phar>  (1) 
0.2

>  <NBS_non-phar>  (1) 
0.8110699653625488

>  <NBS>  (1) 
1.0110699653625488

>  <source_stage>  (1) 
scored

>  <source_iter>  (1) 
2

>  <source_parent_mol>  (1) 
1

>  <source_scenario>  (1) 
0 1

>  <source_rank_in_scored_call>  (1) 
4

>  <source_current_task>  (1) 
close_aromatic_ring

>  <rotatable_bond_torsions>  (1) 
1,0,2,3;0,2,3,4

>  <scenario>  (1) 
0 1

>  <reason_to_skip>  (1) 
incorrect arom ring closing

$$$$

     RDKit          3D

  6  5  0  0  0  0  0  0  0  0999 V2000
  -27.8640   -7.4760  -31.1990 C   0  0  0  0  0  0  0  0  0  0  0  0
  -27.5380   -6.7190  -32.2850 N   0  0  0  0  0  0  0  0  0  0  0  0
  -27.6840   -8.8650  -31.2620 N   0  0  0  0  0  0  0  0  0  0  0  0
  -28.0975   -9.2947  -30.0006 C   0  0  0  0  0  0  0  0  0  0  0  0
  -29.2272  -10.2496  -29.9098 C   0  0  0  0  0  0  0  0  0  0  0  0
  -29.3151  -10.4606  -28.5506 N   0  0  0  0  0  0  0  0  0  0  0  0
  1  2  2  0
  1  3  1  0
  3  4  1  0
  4  5  2  3
  5  6  1  0
M  END
>  <name>  (2) 
Car Nac Nd0 Car Car Nac

>  <indices>  (2) 
[0, 1, 2]

>  <dummy>  (2) 
1

>  <tasks>  (2) 
probe_placing close_aromatic_ring close_aromatic_ring

>  <current_task>  (2) 
close_aromatic_ring

>  <prot_clashes>  (2) 
0

>  <NBS phar>  (2) 
0.2

>  <NBS_non-phar>  (2) 
0.8110699653625488

>  <NBS>  (2) 
1.0110699653625488

>  <source_stage>  (2) 
scored

>  <source_iter>  (2) 
2

>  <source_parent_mol>  (2) 
1

>  <source_scenario>  (2) 
0 1

>  <source_rank_in_scored_call>  (2) 
4

>  <source_current_task>  (2) 
close_aromatic_ring

>  <rotatable_bond_torsions>  (2) 
1,0,2,3;0,2,3,4

>  <scenario>  (2) 
0 1

>  <reason_to_skip>  (2) 
incorrect arom ring closing

$$$$

     RDKit          3D

  6  5  0  0  0  0  0  0  0  0999 V2000
  -27.8640   -7.4760  -31.1990 C   0  0  0  0  0  0  0  0  0  0  0  0
  -27.5380   -6.7190  -32.2850 N   0  0  0  0  0  0  0  0  0  0  0  0
  -27.6840   -8.8650  -31.2620 N   0  0  0  0  0  0  0  0  0  0  0  0
  -28.0975   -9.2947  -30.0006 C   0  0  0  0  0  0  0  0  0  0  0  0
  -29.2272  -10.2496  -29.9098 C   0  0  0  0  0  0  0  0  0  0  0  0
  -29.6107  -10.6375  -28.6381 C   0  0  0  0  0  0  0  0  0  0  0  0
  1  2  2  0
  1  3  1  0
  3  4  1  0
  4  5  2  3
  5  6  1  0
M  END
>  <name>  (3) 
Car Nac Nd0 Car Car Car

>  <indices>  (3) 
[0, 1, 2]

>  <dummy>  (3) 
1

>  <tasks>  (3) 
probe_placing close_aromatic_ring close_aromatic_ring

>  <current_task>  (3) 
close_aromatic_ring

>  <prot_clashes>  (3) 
0

>  <NBS phar>  (3) 
0.2

>  <NBS_non-phar>  (3) 
0.8110699653625488

>  <NBS>  (3) 
1.0110699653625488

>  <source_stage>  (3) 
scored

>  <source_iter>  (3) 
2

>  <source_parent_mol>  (3) 
1

>  <source_scenario>  (3) 
0 1

>  <source_rank_in_scored_call>  (3) 
4

>  <source_current_task>  (3) 
close_aromatic_ring

>  <rotatable_bond_torsions>  (3) 
1,0,2,3;0,2,3,4

>  <scenario>  (3) 
0 1

>  <reason_to_skip>  (3) 
incorrect arom ring closing

$$$$

     RDKit          3D

  6  5  0  0  0  0  0  0  0  0999 V2000
  -27.8640   -7.4760  -31.1990 C   0  0  0  0  0  0  0  0  0  0  0  0
  -27.5380   -6.7190  -32.2850 N   0  0  0  0  0  0  0  0  0  0  0  0
  -27.6840   -8.8650  -31.2620 N   0  0  0  0  0  0  0  0  0  0  0  0
  -28.0975   -9.2947  -30.0006 C   0  0  0  0  0  0  0  0  0  0  0  0
  -29.2272  -10.2496  -29.9098 C   0  0  0  0  0  0  0  0  0  0  0  0
  -29.5186  -10.3885  -31.2907 N   0  0  0  0  0  0  0  0  0  0  0  0
  1  2  2  0
  1  3  1  0
  3  4  1  0
  4  5  2  3
  5  6  1  0
M  END
>  <name>  (4) 
Car Nac Nd0 Car Car Nac

>  <indices>  (4) 
[0, 1, 2]

>  <dummy>  (4) 
1

>  <tasks>  (4) 
probe_placing close_aromatic_ring close_aromatic_ring

>  <current_task>  (4) 
close_aromatic_ring

>  <prot_clashes>  (4) 
0

>  <NBS phar>  (4) 
0.2

>  <NBS_non-phar>  (4) 
0.8110699653625488

>  <NBS>  (4) 
1.0110699653625488

>  <source_stage>  (4) 
scored

>  <source_iter>  (4) 
2

>  <source_parent_mol>  (4) 
1

>  <source_scenario>  (4) 
0 1

>  <source_rank_in_scored_call>  (4) 
4

>  <source_current_task>  (4) 
close_aromatic_ring

>  <rotatable_bond_torsions>  (4) 
1,0,2,3;0,2,3,4

>  <scenario>  (4) 
0 1

>  <reason_to_skip>  (4) 
bad angles

$$$$

     RDKit          3D

  6  5  0  0  0  0  0  0  0  0999 V2000
  -27.8640   -7.4760  -31.1990 C   0  0  0  0  0  0  0  0  0  0  0  0
  -27.5380   -6.7190  -32.2850 N   0  0  0  0  0  0  0  0  0  0  0  0
  -27.6840   -8.8650  -31.2620 N   0  0  0  0  0  0  0  0  0  0  0  0
  -28.0975   -9.2947  -30.0006 C   0  0  0  0  0  0  0  0  0  0  0  0
  -29.2272  -10.2496  -29.9098 C   0  0  0  0  0  0  0  0  0  0  0  0
  -29.4965  -10.4045  -31.3114 C   0  0  0  0  0  0  0  0  0  0  0  0
  1  2  2  0
  1  3  1  0
  3  4  1  0
  4  5  2  3
  5  6  1  0
M  END
>  <name>  (5) 
Car Nac Nd0 Car Car Car

>  <indices>  (5) 
[0, 1, 2]

>  <dummy>  (5) 
1

>  <tasks>  (5) 
probe_placing close_aromatic_ring close_aromatic_ring

>  <current_task>  (5) 
close_aromatic_ring

>  <prot_clashes>  (5) 
0

>  <NBS phar>  (5) 
0.2

>  <NBS_non-phar>  (5) 
0.8110699653625488

>  <NBS>  (5) 
1.0110699653625488

>  <source_stage>  (5) 
scored

>  <source_iter>  (5) 
2

>  <source_parent_mol>  (5) 
1

>  <source_scenario>  (5) 
0 1

>  <source_rank_in_scored_call>  (5) 
4

>  <source_current_task>  (5) 
close_aromatic_ring

>  <rotatable_bond_torsions>  (5) 
1,0,2,3;0,2,3,4

>  <scenario>  (5) 
0 1

>  <reason_to_skip>  (5) 
bad angles

$$$$

     RDKit          3D

  6  5  0  0  0  0  0  0  0  0999 V2000
  -27.8640   -7.4760  -31.1990 C   0  0  0  0  0  0  0  0  0  0  0  0
  -27.5380   -6.7190  -32.2850 N   0  0  0  0  0  0  0  0  0  0  0  0
  -27.6840   -8.8650  -31.2620 N   0  0  0  0  0  0  0  0  0  0  0  0
  -28.0975   -9.2947  -30.0006 C   0  0  0  0  0  0  0  0  0  0  0  0
  -29.2272  -10.2496  -29.9098 C   0  0  0  0  0  0  0  0  0  0  0  0
    0.0000    0.0000    0.0000 O   0  0  0  0  0  0  0  0  0  0  0  0
  1  2  2  0
  1  3  1  0
  3  4  1  0
  4  5  2  3
  5  6  1  0
M  END
>  <name>  (6) 
Car Nac Nd0 Car Car O_a

>  <indices>  (6) 
[0, 1, 2]

>  <dummy>  (6) 
1

>  <tasks>  (6) 
probe_placing close_aromatic_ring close_aromatic_ring

>  <current_task>  (6) 
close_aromatic_ring

>  <prot_clashes>  (6) 
0

>  <NBS phar>  (6) 
0.2

>  <NBS_non-phar>  (6) 
0.8110699653625488

>  <NBS>  (6) 
1.0110699653625488

>  <source_stage>  (6) 
scored

>  <source_iter>  (6) 
2

>  <source_parent_mol>  (6) 
1

>  <source_scenario>  (6) 
0 1

>  <source_rank_in_scored_call>  (6) 
4

>  <source_current_task>  (6) 
close_aromatic_ring

>  <rotatable_bond_torsions>  (6) 
1,0,2,3;0,2,3,4

>  <scenario>  (6) 
0 1

>  <reason_to_skip>  (6) 
some_atom_counter_exceeded

$$$$

     RDKit          3D

  6  5  0  0  0  0  0  0  0  0999 V2000
  -27.8640   -7.4760  -31.1990 C   0  0  0  0  0  0  0  0  0  0  0  0
  -27.5380   -6.7190  -32.2850 N   0  0  0  0  0  0  0  0  0  0  0  0
  -27.6840   -8.8650  -31.2620 N   0  0  0  0  0  0  0  0  0  0  0  0
  -28.0975   -9.2947  -30.0006 C   0  0  0  0  0  0  0  0  0  0  0  0
  -29.2272  -10.2496  -29.9098 C   0  0  0  0  0  0  0  0  0  0  0  0
  -29.8491  -10.8361  -28.9166 N   0  0  0  0  0  0  0  0  0  0  0  0
  1  2  2  0
  1  3  1  0
  3  4  1  0
  4  5  2  3
  5  6  1  0
M  END
>  <name>  (7) 
Car Nac Nd0 Car Car Nd0

>  <indices>  (7) 
[0, 1, 2]

>  <dummy>  (7) 
1

>  <tasks>  (7) 
probe_placing close_aromatic_ring close_aromatic_ring

>  <current_task>  (7) 
close_aromatic_ring

>  <prot_clashes>  (7) 
0

>  <NBS phar>  (7) 
0.2

>  <NBS_non-phar>  (7) 
0.8110699653625488

>  <NBS>  (7) 
1.0110699653625488

>  <source_stage>  (7) 
scored

>  <source_iter>  (7) 
2

>  <source_parent_mol>  (7) 
1

>  <source_scenario>  (7) 
0 1

>  <source_rank_in_scored_call>  (7) 
4

>  <source_current_task>  (7) 
close_aromatic_ring

>  <rotatable_bond_torsions>  (7) 
1,0,2,3;0,2,3,4

>  <scenario>  (7) 
0 1

>  <reason_to_skip>  (7) 
incorrect arom ring closing

$$$$

     RDKit          3D

  6  5  0  0  0  0  0  0  0  0999 V2000
  -27.8640   -7.4760  -31.1990 C   0  0  0  0  0  0  0  0  0  0  0  0
  -27.5380   -6.7190  -32.2850 N   0  0  0  0  0  0  0  0  0  0  0  0
  -27.6840   -8.8650  -31.2620 N   0  0  0  0  0  0  0  0  0  0  0  0
  -28.0975   -9.2947  -30.0006 C   0  0  0  0  0  0  0  0  0  0  0  0
  -29.2272  -10.2496  -29.9098 C   0  0  0  0  0  0  0  0  0  0  0  0
  -29.6211  -10.6761  -28.6890 N   0  0  0  0  0  0  0  0  0  0  0  0
  1  2  2  0
  1  3  1  0
  3  4  1  0
  4  5  2  3
  5  6  1  0
M  END
>  <name>  (8) 
Car Nac Nd0 Car Car Nac

>  <indices>  (8) 
[0, 1, 2]

>  <dummy>  (8) 
1

>  <tasks>  (8) 
probe_placing close_aromatic_ring close_aromatic_ring

>  <current_task>  (8) 
close_aromatic_ring

>  <prot_clashes>  (8) 
0

>  <NBS phar>  (8) 
0.2

>  <NBS_non-phar>  (8) 
0.8110699653625488

>  <NBS>  (8) 
1.0110699653625488

>  <source_stage>  (8) 
scored

>  <source_iter>  (8) 
2

>  <source_parent_mol>  (8) 
1

>  <source_scenario>  (8) 
0 1

>  <source_rank_in_scored_call>  (8) 
4

>  <source_current_task>  (8) 
close_aromatic_ring

>  <rotatable_bond_torsions>  (8) 
1,0,2,3;0,2,3,4

>  <scenario>  (8) 
0 1

>  <reason_to_skip>  (8) 
incorrect arom ring closing

$$$$

     RDKit          3D

  6  5  0  0  0  0  0  0  0  0999 V2000
  -27.8640   -7.4760  -31.1990 C   0  0  0  0  0  0  0  0  0  0  0  0
  -27.5380   -6.7190  -32.2850 N   0  0  0  0  0  0  0  0  0  0  0  0
  -27.6840   -8.8650  -31.2620 N   0  0  0  0  0  0  0  0  0  0  0  0
  -28.0975   -9.2947  -30.0006 C   0  0  0  0  0  0  0  0  0  0  0  0
  -29.2272  -10.2496  -29.9098 C   0  0  0  0  0  0  0  0  0  0  0  0
    0.0000    0.0000    0.0000 O   0  0  0  0  0  0  0  0  0  0  0  0
  1  2  2  0
  1  3  1  0
  3  4  1  0
  4  5  2  3
  5  6  1  0
M  END
>  <name>  (9) 
Car Nac Nd0 Car Car O_a

>  <indices>  (9) 
[0, 1, 2]

>  <dummy>  (9) 
1

>  <tasks>  (9) 
probe_placing close_aromatic_ring close_aromatic_ring

>  <current_task>  (9) 
close_aromatic_ring

>  <prot_clashes>  (9) 
0

>  <NBS phar>  (9) 
0.2

>  <NBS_non-phar>  (9) 
0.8110699653625488

>  <NBS>  (9) 
1.0110699653625488

>  <source_stage>  (9) 
scored

>  <source_iter>  (9) 
2

>  <source_parent_mol>  (9) 
1

>  <source_scenario>  (9) 
0 1

>  <source_rank_in_scored_call>  (9) 
4

>  <source_current_task>  (9) 
close_aromatic_ring

>  <rotatable_bond_torsions>  (9) 
1,0,2,3;0,2,3,4

>  <scenario>  (9) 
0 1

>  <reason_to_skip>  (9) 
some_atom_counter_exceeded

$$$$

     RDKit          3D

  6  5  0  0  0  0  0  0  0  0999 V2000
  -27.8640   -7.4760  -31.1990 C   0  0  0  0  0  0  0  0  0  0  0  0
  -27.5380   -6.7190  -32.2850 N   0  0  0  0  0  0  0  0  0  0  0  0
  -27.6840   -8.8650  -31.2620 N   0  0  0  0  0  0  0  0  0  0  0  0
  -28.0975   -9.2947  -30.0006 C   0  0  0  0  0  0  0  0  0  0  0  0
  -29.2272  -10.2496  -29.9098 C   0  0  0  0  0  0  0  0  0  0  0  0
  -28.7513  -11.5547  -29.7788 C   0  0  0  0  0  0  0  0  0  0  0  0
  1  2  2  0
  1  3  1  0
  3  4  1  0
  4  5  2  3
  5  6  1  0
M  END
>  <name>  (10) 
Car Nac Nd0 Car Car Car

>  <indices>  (10) 
[0, 1, 2]

>  <dummy>  (10) 
1

>  <tasks>  (10) 
probe_placing close_aromatic_ring close_aromatic_ring

>  <current_task>  (10) 
close_aromatic_ring

>  <prot_clashes>  (10) 
0

>  <NBS phar>  (10) 
0.2

>  <NBS_non-phar>  (10) 
0.8110699653625488

>  <NBS>  (10) 
1.0110699653625488

>  <source_stage>  (10) 
scored

>  <source_iter>  (10) 
2

>  <source_parent_mol>  (10) 
1

>  <source_scenario>  (10) 
0 1

>  <source_rank_in_scored_call>  (10) 
4

>  <source_current_task>  (10) 
close_aromatic_ring

>  <rotatable_bond_torsions>  (10) 
1,0,2,3;0,2,3,4

>  <scenario>  (10) 
0 1

>  <reason_to_skip>  (10) 
incorrect arom ring closing

$$$$

     RDKit          3D

  6  5  0  0  0  0  0  0  0  0999 V2000
  -27.8640   -7.4760  -31.1990 C   0  0  0  0  0  0  0  0  0  0  0  0
  -27.5380   -6.7190  -32.2850 N   0  0  0  0  0  0  0  0  0  0  0  0
  -27.6840   -8.8650  -31.2620 N   0  0  0  0  0  0  0  0  0  0  0  0
  -28.0975   -9.2947  -30.0006 C   0  0  0  0  0  0  0  0  0  0  0  0
  -29.2272  -10.2496  -29.9098 C   0  0  0  0  0  0  0  0  0  0  0  0
  -29.7794  -10.6680  -31.0465 N   0  0  0  0  0  0  0  0  0  0  0  0
  1  2  2  0
  1  3  1  0
  3  4  1  0
  4  5  2  3
  5  6  1  0
M  END
>  <name>  (11) 
Car Nac Nd0 Car Car Nd0

>  <indices>  (11) 
[0, 1, 2]

>  <dummy>  (11) 
1

>  <tasks>  (11) 
probe_placing close_aromatic_ring close_aromatic_ring

>  <current_task>  (11) 
close_aromatic_ring

>  <prot_clashes>  (11) 
0

>  <NBS phar>  (11) 
0.2

>  <NBS_non-phar>  (11) 
0.8110699653625488

>  <NBS>  (11) 
1.0110699653625488

>  <source_stage>  (11) 
scored

>  <source_iter>  (11) 
2

>  <source_parent_mol>  (11) 
1

>  <source_scenario>  (11) 
0 1

>  <source_rank_in_scored_call>  (11) 
4

>  <source_current_task>  (11) 
close_aromatic_ring

>  <rotatable_bond_torsions>  (11) 
1,0,2,3;0,2,3,4

>  <scenario>  (11) 
0 1

>  <reason_to_skip>  (11) 
intramol repulsion

$$$$

     RDKit          3D

  6  5  0  0  0  0  0  0  0  0999 V2000
  -27.8640   -7.4760  -31.1990 C   0  0  0  0  0  0  0  0  0  0  0  0
  -27.5380   -6.7190  -32.2850 N   0  0  0  0  0  0  0  0  0  0  0  0
  -27.6840   -8.8650  -31.2620 N   0  0  0  0  0  0  0  0  0  0  0  0
  -28.0975   -9.2947  -30.0006 C   0  0  0  0  0  0  0  0  0  0  0  0
  -29.2272  -10.2496  -29.9098 C   0  0  0  0  0  0  0  0  0  0  0  0
  -29.5744  -10.6406  -28.7324 N   0  0  0  0  0  0  0  0  0  0  0  0
  1  2  2  0
  1  3  1  0
  3  4  1  0
  4  5  2  3
  5  6  1  0
M  END
>  <name>  (12) 
Car Nac Nd0 Car Car Nd0

>  <indices>  (12) 
[0, 1, 2]

>  <dummy>  (12) 
1

>  <tasks>  (12) 
probe_placing close_aromatic_ring close_aromatic_ring

>  <current_task>  (12) 
close_aromatic_ring

>  <prot_clashes>  (12) 
0

>  <NBS phar>  (12) 
0.2

>  <NBS_non-phar>  (12) 
0.8110699653625488

>  <NBS>  (12) 
1.0110699653625488

>  <source_stage>  (12) 
scored

>  <source_iter>  (12) 
2

>  <source_parent_mol>  (12) 
1

>  <source_scenario>  (12) 
0 1

>  <source_rank_in_scored_call>  (12) 
4

>  <source_current_task>  (12) 
close_aromatic_ring

>  <rotatable_bond_torsions>  (12) 
1,0,2,3;0,2,3,4

>  <scenario>  (12) 
0 1

>  <reason_to_skip>  (12) 
incorrect arom ring closing

$$$$

     RDKit          3D

  6  5  0  0  0  0  0  0  0  0999 V2000
  -27.8640   -7.4760  -31.1990 C   0  0  0  0  0  0  0  0  0  0  0  0
  -27.5380   -6.7190  -32.2850 N   0  0  0  0  0  0  0  0  0  0  0  0
  -27.6840   -8.8650  -31.2620 N   0  0  0  0  0  0  0  0  0  0  0  0
  -28.0975   -9.2947  -30.0006 C   0  0  0  0  0  0  0  0  0  0  0  0
  -29.2272  -10.2496  -29.9098 C   0  0  0  0  0  0  0  0  0  0  0  0
    0.0000    0.0000    0.0000 S   0  0  0  0  0  0  0  0  0  0  0  0
  1  2  2  0
  1  3  1  0
  3  4  1  0
  4  5  2  3
  5  6  1  0
M  END
>  <name>  (13) 
Car Nac Nd0 Car Car Sul

>  <indices>  (13) 
[0, 1, 2]

>  <dummy>  (13) 
1

>  <tasks>  (13) 
probe_placing close_aromatic_ring close_aromatic_ring

>  <current_task>  (13) 
close_aromatic_ring

>  <prot_clashes>  (13) 
0

>  <NBS phar>  (13) 
0.2

>  <NBS_non-phar>  (13) 
0.8110699653625488

>  <NBS>  (13) 
1.0110699653625488

>  <source_stage>  (13) 
scored

>  <source_iter>  (13) 
2

>  <source_parent_mol>  (13) 
1

>  <source_scenario>  (13) 
0 1

>  <source_rank_in_scored_call>  (13) 
4

>  <source_current_task>  (13) 
close_aromatic_ring

>  <rotatable_bond_torsions>  (13) 
1,0,2,3;0,2,3,4

>  <scenario>  (13) 
0 1

>  <reason_to_skip>  (13) 
some_atom_counter_exceeded

$$$$

     RDKit          3D

  6  5  0  0  0  0  0  0  0  0999 V2000
  -27.8640   -7.4760  -31.1990 C   0  0  0  0  0  0  0  0  0  0  0  0
  -27.5380   -6.7190  -32.2850 N   0  0  0  0  0  0  0  0  0  0  0  0
  -27.6840   -8.8650  -31.2620 N   0  0  0  0  0  0  0  0  0  0  0  0
  -28.0975   -9.2947  -30.0006 C   0  0  0  0  0  0  0  0  0  0  0  0
  -29.2272  -10.2496  -29.9098 C   0  0  0  0  0  0  0  0  0  0  0  0
  -29.0224  -11.6118  -29.5745 C   0  0  0  0  0  0  0  0  0  0  0  0
  1  2  2  0
  1  3  1  0
  3  4  1  0
  4  5  2  3
  5  6  1  0
M  END
>  <name>  (14) 
Car Nac Nd0 Car Car Car

>  <indices>  (14) 
[0, 1, 2]

>  <dummy>  (14) 
1

>  <tasks>  (14) 
probe_placing close_aromatic_ring close_aromatic_ring

>  <current_task>  (14) 
close_aromatic_ring

>  <prot_clashes>  (14) 
0

>  <NBS phar>  (14) 
0.2

>  <NBS_non-phar>  (14) 
0.8110699653625488

>  <NBS>  (14) 
1.0110699653625488

>  <source_stage>  (14) 
scored

>  <source_iter>  (14) 
2

>  <source_parent_mol>  (14) 
1

>  <source_scenario>  (14) 
0 1

>  <source_rank_in_scored_call>  (14) 
4

>  <source_current_task>  (14) 
close_aromatic_ring

>  <rotatable_bond_torsions>  (14) 
1,0,2,3;0,2,3,4

>  <scenario>  (14) 
0 1

>  <reason_to_skip>  (14) 
incorrect arom ring closing

$$$$

     RDKit          3D

  6  5  0  0  0  0  0  0  0  0999 V2000
  -27.8640   -7.4760  -31.1990 C   0  0  0  0  0  0  0  0  0  0  0  0
  -27.5380   -6.7190  -32.2850 N   0  0  0  0  0  0  0  0  0  0  0  0
  -27.6840   -8.8650  -31.2620 N   0  0  0  0  0  0  0  0  0  0  0  0
  -28.0975   -9.2947  -30.0006 C   0  0  0  0  0  0  0  0  0  0  0  0
  -29.2272  -10.2496  -29.9098 C   0  0  0  0  0  0  0  0  0  0  0  0
    0.0000    0.0000    0.0000 O   0  0  0  0  0  0  0  0  0  0  0  0
  1  2  2  0
  1  3  1  0
  3  4  1  0
  4  5  2  3
  5  6  1  0
M  END
>  <name>  (15) 
Car Nac Nd0 Car Car O_a

>  <indices>  (15) 
[0, 1, 2]

>  <dummy>  (15) 
1

>  <tasks>  (15) 
probe_placing close_aromatic_ring close_aromatic_ring

>  <current_task>  (15) 
close_aromatic_ring

>  <prot_clashes>  (15) 
0

>  <NBS phar>  (15) 
0.2

>  <NBS_non-phar>  (15) 
0.8110699653625488

>  <NBS>  (15) 
1.0110699653625488

>  <source_stage>  (15) 
scored

>  <source_iter>  (15) 
2

>  <source_parent_mol>  (15) 
1

>  <source_scenario>  (15) 
0 1

>  <source_rank_in_scored_call>  (15) 
4

>  <source_current_task>  (15) 
close_aromatic_ring

>  <rotatable_bond_torsions>  (15) 
1,0,2,3;0,2,3,4

>  <scenario>  (15) 
0 1

>  <reason_to_skip>  (15) 
some_atom_counter_exceeded

$$$$

     RDKit          3D

  6  5  0  0  0  0  0  0  0  0999 V2000
  -27.8640   -7.4760  -31.1990 C   0  0  0  0  0  0  0  0  0  0  0  0
  -27.5380   -6.7190  -32.2850 N   0  0  0  0  0  0  0  0  0  0  0  0
  -27.6840   -8.8650  -31.2620 N   0  0  0  0  0  0  0  0  0  0  0  0
  -28.0975   -9.2947  -30.0006 C   0  0  0  0  0  0  0  0  0  0  0  0
  -29.2272  -10.2496  -29.9098 C   0  0  0  0  0  0  0  0  0  0  0  0
    0.0000    0.0000    0.0000 S   0  0  0  0  0  0  0  0  0  0  0  0
  1  2  2  0
  1  3  1  0
  3  4  1  0
  4  5  2  3
  5  6  1  0
M  END
>  <name>  (16) 
Car Nac Nd0 Car Car Sul

>  <indices>  (16) 
[0, 1, 2]

>  <dummy>  (16) 
1

>  <tasks>  (16) 
probe_placing close_aromatic_ring close_aromatic_ring

>  <current_task>  (16) 
close_aromatic_ring

>  <prot_clashes>  (16) 
0

>  <NBS phar>  (16) 
0.2

>  <NBS_non-phar>  (16) 
0.8110699653625488

>  <NBS>  (16) 
1.0110699653625488

>  <source_stage>  (16) 
scored

>  <source_iter>  (16) 
2

>  <source_parent_mol>  (16) 
1

>  <source_scenario>  (16) 
0 1

>  <source_rank_in_scored_call>  (16) 
4

>  <source_current_task>  (16) 
close_aromatic_ring

>  <rotatable_bond_torsions>  (16) 
1,0,2,3;0,2,3,4

>  <scenario>  (16) 
0 1

>  <reason_to_skip>  (16) 
some_atom_counter_exceeded

$$$$

     RDKit          3D

  6  5  0  0  0  0  0  0  0  0999 V2000
  -27.8640   -7.4760  -31.1990 C   0  0  0  0  0  0  0  0  0  0  0  0
  -27.5380   -6.7190  -32.2850 N   0  0  0  0  0  0  0  0  0  0  0  0
  -27.6840   -8.8650  -31.2620 N   0  0  0  0  0  0  0  0  0  0  0  0
  -28.0975   -9.2947  -30.0006 C   0  0  0  0  0  0  0  0  0  0  0  0
  -29.2272  -10.2496  -29.9098 C   0  0  0  0  0  0  0  0  0  0  0  0
    0.0000    0.0000    0.0000 S   0  0  0  0  0  0  0  0  0  0  0  0
  1  2  2  0
  1  3  1  0
  3  4  1  0
  4  5  2  3
  5  6  1  0
M  END
>  <name>  (17) 
Car Nac Nd0 Car Car Sul

>  <indices>  (17) 
[0, 1, 2]

>  <dummy>  (17) 
1

>  <tasks>  (17) 
probe_placing close_aromatic_ring close_aromatic_ring

>  <current_task>  (17) 
close_aromatic_ring

>  <prot_clashes>  (17) 
0

>  <NBS phar>  (17) 
0.2

>  <NBS_non-phar>  (17) 
0.8110699653625488

>  <NBS>  (17) 
1.0110699653625488

>  <source_stage>  (17) 
scored

>  <source_iter>  (17) 
2

>  <source_parent_mol>  (17) 
1

>  <source_scenario>  (17) 
0 1

>  <source_rank_in_scored_call>  (17) 
4

>  <source_current_task>  (17) 
close_aromatic_ring

>  <rotatable_bond_torsions>  (17) 
1,0,2,3;0,2,3,4

>  <scenario>  (17) 
0 1

>  <reason_to_skip>  (17) 
some_atom_counter_exceeded

$$$$

     RDKit          3D

  6  5  0  0  0  0  0  0  0  0999 V2000
  -27.8640   -7.4760  -31.1990 C   0  0  0  0  0  0  0  0  0  0  0  0
  -27.5380   -6.7190  -32.2850 N   0  0  0  0  0  0  0  0  0  0  0  0
  -27.6840   -8.8650  -31.2620 N   0  0  0  0  0  0  0  0  0  0  0  0
  -28.0975   -9.2947  -30.0006 C   0  0  0  0  0  0  0  0  0  0  0  0
  -29.2272  -10.2496  -29.9098 C   0  0  0  0  0  0  0  0  0  0  0  0
    0.0000    0.0000    0.0000 S   0  0  0  0  0  0  0  0  0  0  0  0
  1  2  2  0
  1  3  1  0
  3  4  1  0
  4  5  2  3
  5  6  1  0
M  END
>  <name>  (18) 
Car Nac Nd0 Car Car Sul

>  <indices>  (18) 
[0, 1, 2]

>  <dummy>  (18) 
1

>  <tasks>  (18) 
probe_placing close_aromatic_ring close_aromatic_ring

>  <current_task>  (18) 
close_aromatic_ring

>  <prot_clashes>  (18) 
0

>  <NBS phar>  (18) 
0.2

>  <NBS_non-phar>  (18) 
0.8110699653625488

>  <NBS>  (18) 
1.0110699653625488

>  <source_stage>  (18) 
scored

>  <source_iter>  (18) 
2

>  <source_parent_mol>  (18) 
1

>  <source_scenario>  (18) 
0 1

>  <source_rank_in_scored_call>  (18) 
4

>  <source_current_task>  (18) 
close_aromatic_ring

>  <rotatable_bond_torsions>  (18) 
1,0,2,3;0,2,3,4

>  <scenario>  (18) 
0 1

>  <reason_to_skip>  (18) 
some_atom_counter_exceeded

$$$$

     RDKit          3D

  6  5  0  0  0  0  0  0  0  0999 V2000
  -27.8640   -7.4760  -31.1990 C   0  0  0  0  0  0  0  0  0  0  0  0
  -27.5380   -6.7190  -32.2850 N   0  0  0  0  0  0  0  0  0  0  0  0
  -27.6840   -8.8650  -31.2620 N   0  0  0  0  0  0  0  0  0  0  0  0
  -28.0975   -9.2947  -30.0006 C   0  0  0  0  0  0  0  0  0  0  0  0
  -29.2272  -10.2496  -29.9098 C   0  0  0  0  0  0  0  0  0  0  0  0
    0.0000    0.0000    0.0000 O   0  0  0  0  0  0  0  0  0  0  0  0
  1  2  2  0
  1  3  1  0
  3  4  1  0
  4  5  2  3
  5  6  1  0
M  END
>  <name>  (19) 
Car Nac Nd0 Car Car O_a

>  <indices>  (19) 
[0, 1, 2]

>  <dummy>  (19) 
1

>  <tasks>  (19) 
probe_placing close_aromatic_ring close_aromatic_ring

>  <current_task>  (19) 
close_aromatic_ring

>  <prot_clashes>  (19) 
0

>  <NBS phar>  (19) 
0.2

>  <NBS_non-phar>  (19) 
0.8110699653625488

>  <NBS>  (19) 
1.0110699653625488

>  <source_stage>  (19) 
scored

>  <source_iter>  (19) 
2

>  <source_parent_mol>  (19) 
1

>  <source_scenario>  (19) 
0 1

>  <source_rank_in_scored_call>  (19) 
4

>  <source_current_task>  (19) 
close_aromatic_ring

>  <rotatable_bond_torsions>  (19) 
1,0,2,3;0,2,3,4

>  <scenario>  (19) 
0 1

>  <reason_to_skip>  (19) 
some_atom_counter_exceeded

$$$$

     RDKit          3D

  6  5  0  0  0  0  0  0  0  0999 V2000
  -27.8640   -7.4760  -31.1990 C   0  0  0  0  0  0  0  0  0  0  0  0
  -27.5380   -6.7190  -32.2850 N   0  0  0  0  0  0  0  0  0  0  0  0
  -27.6840   -8.8650  -31.2620 N   0  0  0  0  0  0  0  0  0  0  0  0
  -28.0975   -9.2947  -30.0006 C   0  0  0  0  0  0  0  0  0  0  0  0
  -29.2272  -10.2496  -29.9098 C   0  0  0  0  0  0  0  0  0  0  0  0
    0.0000    0.0000    0.0000 S   0  0  0  0  0  0  0  0  0  0  0  0
  1  2  2  0
  1  3  1  0
  3  4  1  0
  4  5  2  3
  5  6  1  0
M  END
>  <name>  (20) 
Car Nac Nd0 Car Car Sul

>  <indices>  (20) 
[0, 1, 2]

>  <dummy>  (20) 
1

>  <tasks>  (20) 
probe_placing close_aromatic_ring close_aromatic_ring

>  <current_task>  (20) 
close_aromatic_ring

>  <prot_clashes>  (20) 
0

>  <NBS phar>  (20) 
0.2

>  <NBS_non-phar>  (20) 
0.8110699653625488

>  <NBS>  (20) 
1.0110699653625488

>  <source_stage>  (20) 
scored

>  <source_iter>  (20) 
2

>  <source_parent_mol>  (20) 
1

>  <source_scenario>  (20) 
0 1

>  <source_rank_in_scored_call>  (20) 
4

>  <source_current_task>  (20) 
close_aromatic_ring

>  <rotatable_bond_torsions>  (20) 
1,0,2,3;0,2,3,4

>  <scenario>  (20) 
0 1

>  <reason_to_skip>  (20) 
some_atom_counter_exceeded

$$$$

     RDKit          3D

  6  5  0  0  0  0  0  0  0  0999 V2000
  -27.8640   -7.4760  -31.1990 C   0  0  0  0  0  0  0  0  0  0  0  0
  -27.5380   -6.7190  -32.2850 N   0  0  0  0  0  0  0  0  0  0  0  0
  -27.6840   -8.8650  -31.2620 N   0  0  0  0  0  0  0  0  0  0  0  0
  -28.0975   -9.2947  -30.0006 C   0  0  0  0  0  0  0  0  0  0  0  0
  -29.2272  -10.2496  -29.9098 C   0  0  0  0  0  0  0  0  0  0  0  0
    0.0000    0.0000    0.0000 S   0  0  0  0  0  0  0  0  0  0  0  0
  1  2  2  0
  1  3  1  0
  3  4  1  0
  4  5  2  3
  5  6  1  0
M  END
>  <name>  (21) 
Car Nac Nd0 Car Car Sul

>  <indices>  (21) 
[0, 1, 2]

>  <dummy>  (21) 
1

>  <tasks>  (21) 
probe_placing close_aromatic_ring close_aromatic_ring

>  <current_task>  (21) 
close_aromatic_ring

>  <prot_clashes>  (21) 
0

>  <NBS phar>  (21) 
0.2

>  <NBS_non-phar>  (21) 
0.8110699653625488

>  <NBS>  (21) 
1.0110699653625488

>  <source_stage>  (21) 
scored

>  <source_iter>  (21) 
2

>  <source_parent_mol>  (21) 
1

>  <source_scenario>  (21) 
0 1

>  <source_rank_in_scored_call>  (21) 
4

>  <source_current_task>  (21) 
close_aromatic_ring

>  <rotatable_bond_torsions>  (21) 
1,0,2,3;0,2,3,4

>  <scenario>  (21) 
0 1

>  <reason_to_skip>  (21) 
some_atom_counter_exceeded

$$$$

     RDKit          3D

  6  5  0  0  0  0  0  0  0  0999 V2000
  -27.8640   -7.4760  -31.1990 C   0  0  0  0  0  0  0  0  0  0  0  0
  -27.5380   -6.7190  -32.2850 N   0  0  0  0  0  0  0  0  0  0  0  0
  -27.6840   -8.8650  -31.2620 N   0  0  0  0  0  0  0  0  0  0  0  0
  -28.0975   -9.2947  -30.0006 C   0  0  0  0  0  0  0  0  0  0  0  0
  -29.2272  -10.2496  -29.9098 C   0  0  0  0  0  0  0  0  0  0  0  0
  -30.3665   -9.8742  -29.2395 C   0  0  0  0  0  0  0  0  0  0  0  0
  1  2  2  0
  1  3  1  0
  3  4  1  0
  4  5  2  3
  5  6  1  0
M  END
>  <name>  (22) 
Car Nac Nd0 Car Car Car

>  <indices>  (22) 
[0, 1, 2]

>  <dummy>  (22) 
1

>  <tasks>  (22) 
probe_placing close_aromatic_ring close_aromatic_ring

>  <current_task>  (22) 
close_aromatic_ring

>  <prot_clashes>  (22) 
0

>  <NBS phar>  (22) 
0.2

>  <NBS_non-phar>  (22) 
0.8110699653625488

>  <NBS>  (22) 
1.0110699653625488

>  <source_stage>  (22) 
scored

>  <source_iter>  (22) 
2

>  <source_parent_mol>  (22) 
1

>  <source_scenario>  (22) 
0 1

>  <source_rank_in_scored_call>  (22) 
4

>  <source_current_task>  (22) 
close_aromatic_ring

>  <rotatable_bond_torsions>  (22) 
1,0,2,3;0,2,3,4

>  <scenario>  (22) 
0 1

>  <reason_to_skip>  (22) 
incorrect arom ring closing

$$$$

     RDKit          3D

  6  5  0  0  0  0  0  0  0  0999 V2000
  -27.8640   -7.4760  -31.1990 C   0  0  0  0  0  0  0  0  0  0  0  0
  -27.5380   -6.7190  -32.2850 N   0  0  0  0  0  0  0  0  0  0  0  0
  -27.6840   -8.8650  -31.2620 N   0  0  0  0  0  0  0  0  0  0  0  0
  -28.0975   -9.2947  -30.0006 C   0  0  0  0  0  0  0  0  0  0  0  0
  -29.2272  -10.2496  -29.9098 C   0  0  0  0  0  0  0  0  0  0  0  0
  -30.6269   -9.6649  -29.7456 C   0  0  0  0  0  0  0  0  0  0  0  0
  1  2  2  0
  1  3  1  0
  3  4  1  0
  4  5  2  3
  5  6  1  0
M  END
>  <name>  (23) 
Car Nac Nd0 Car Car Car

>  <indices>  (23) 
[0, 1, 2]

>  <dummy>  (23) 
1

>  <tasks>  (23) 
probe_placing close_aromatic_ring close_aromatic_ring

>  <current_task>  (23) 
close_aromatic_ring

>  <prot_clashes>  (23) 
0

>  <NBS phar>  (23) 
0.2

>  <NBS_non-phar>  (23) 
0.8110699653625488

>  <NBS>  (23) 
1.0110699653625488

>  <source_stage>  (23) 
scored

>  <source_iter>  (23) 
2

>  <source_parent_mol>  (23) 
1

>  <source_scenario>  (23) 
0 1

>  <source_rank_in_scored_call>  (23) 
4

>  <source_current_task>  (23) 
close_aromatic_ring

>  <rotatable_bond_torsions>  (23) 
1,0,2,3;0,2,3,4

>  <scenario>  (23) 
0 1

>  <reason_to_skip>  (23) 
incorrect arom ring closing

$$$$

     RDKit          3D

  6  5  0  0  0  0  0  0  0  0999 V2000
  -27.8640   -7.4760  -31.1990 C   0  0  0  0  0  0  0  0  0  0  0  0
  -27.5380   -6.7190  -32.2850 N   0  0  0  0  0  0  0  0  0  0  0  0
  -27.6840   -8.8650  -31.2620 N   0  0  0  0  0  0  0  0  0  0  0  0
  -28.0975   -9.2947  -30.0006 C   0  0  0  0  0  0  0  0  0  0  0  0
  -29.2272  -10.2496  -29.9098 C   0  0  0  0  0  0  0  0  0  0  0  0
  -30.0165  -10.8573  -30.8194 N   0  0  0  0  0  0  0  0  0  0  0  0
  1  2  2  0
  1  3  1  0
  3  4  1  0
  4  5  2  3
  5  6  1  0
M  END
>  <name>  (24) 
Car Nac Nd0 Car Car Nac

>  <indices>  (24) 
[0, 1, 2]

>  <dummy>  (24) 
1

>  <tasks>  (24) 
probe_placing close_aromatic_ring close_aromatic_ring

>  <current_task>  (24) 
close_aromatic_ring

>  <prot_clashes>  (24) 
0

>  <NBS phar>  (24) 
0.2

>  <NBS_non-phar>  (24) 
0.8110699653625488

>  <NBS>  (24) 
1.0110699653625488

>  <source_stage>  (24) 
scored

>  <source_iter>  (24) 
2

>  <source_parent_mol>  (24) 
1

>  <source_scenario>  (24) 
0 1

>  <source_rank_in_scored_call>  (24) 
4

>  <source_current_task>  (24) 
close_aromatic_ring

>  <rotatable_bond_torsions>  (24) 
1,0,2,3;0,2,3,4

>  <scenario>  (24) 
0 1

>  <reason_to_skip>  (24) 
subgraph mismatch

$$$$

     RDKit          3D

  6  5  0  0  0  0  0  0  0  0999 V2000
  -27.8640   -7.4760  -31.1990 C   0  0  0  0  0  0  0  0  0  0  0  0
  -27.5380   -6.7190  -32.2850 N   0  0  0  0  0  0  0  0  0  0  0  0
  -27.6840   -8.8650  -31.2620 N   0  0  0  0  0  0  0  0  0  0  0  0
  -28.0975   -9.2947  -30.0006 C   0  0  0  0  0  0  0  0  0  0  0  0
  -29.2272  -10.2496  -29.9098 C   0  0  0  0  0  0  0  0  0  0  0  0
  -30.0363  -10.9036  -30.8845 C   0  0  0  0  0  0  0  0  0  0  0  0
  1  2  2  0
  1  3  1  0
  3  4  1  0
  4  5  2  3
  5  6  1  0
M  END
>  <name>  (25) 
Car Nac Nd0 Car Car Car

>  <indices>  (25) 
[0, 1, 2]

>  <dummy>  (25) 
1

>  <tasks>  (25) 
probe_placing close_aromatic_ring close_aromatic_ring

>  <current_task>  (25) 
close_aromatic_ring

>  <prot_clashes>  (25) 
0

>  <NBS phar>  (25) 
0.2

>  <NBS_non-phar>  (25) 
0.8110699653625488

>  <NBS>  (25) 
1.0110699653625488

>  <source_stage>  (25) 
scored

>  <source_iter>  (25) 
2

>  <source_parent_mol>  (25) 
1

>  <source_scenario>  (25) 
0 1

>  <source_rank_in_scored_call>  (25) 
4

>  <source_current_task>  (25) 
close_aromatic_ring

>  <rotatable_bond_torsions>  (25) 
1,0,2,3;0,2,3,4

>  <scenario>  (25) 
0 1

>  <reason_to_skip>  (25) 
subgraph mismatch

$$$$

     RDKit          3D

  6  5  0  0  0  0  0  0  0  0999 V2000
  -27.8640   -7.4760  -31.1990 C   0  0  0  0  0  0  0  0  0  0  0  0
  -27.5380   -6.7190  -32.2850 N   0  0  0  0  0  0  0  0  0  0  0  0
  -27.6840   -8.8650  -31.2620 N   0  0  0  0  0  0  0  0  0  0  0  0
  -28.0975   -9.2947  -30.0006 C   0  0  0  0  0  0  0  0  0  0  0  0
  -29.2272  -10.2496  -29.9098 C   0  0  0  0  0  0  0  0  0  0  0  0
  -29.9018  -10.7457  -30.9798 C   0  0  0  0  0  0  0  0  0  0  0  0
  1  2  2  0
  1  3  1  0
  3  4  1  0
  4  5  2  3
  5  6  1  0
M  END
>  <name>  (26) 
Car Nac Nd0 Car Car Car

>  <indices>  (26) 
[0, 1, 2]

>  <dummy>  (26) 
1

>  <tasks>  (26) 
probe_placing close_aromatic_ring close_aromatic_ring

>  <current_task>  (26) 
close_aromatic_ring

>  <prot_clashes>  (26) 
0

>  <NBS phar>  (26) 
0.2

>  <NBS_non-phar>  (26) 
0.8110699653625488

>  <NBS>  (26) 
1.0110699653625488

>  <source_stage>  (26) 
scored

>  <source_iter>  (26) 
2

>  <source_parent_mol>  (26) 
1

>  <source_scenario>  (26) 
0 1

>  <source_rank_in_scored_call>  (26) 
4

>  <source_current_task>  (26) 
close_aromatic_ring

>  <rotatable_bond_torsions>  (26) 
1,0,2,3;0,2,3,4

>  <scenario>  (26) 
0 1

>  <reason_to_skip>  (26) 
subgraph mismatch

$$$$

     RDKit          3D

  6  5  0  0  0  0  0  0  0  0999 V2000
  -27.8640   -7.4760  -31.1990 C   0  0  0  0  0  0  0  0  0  0  0  0
  -27.5380   -6.7190  -32.2850 N   0  0  0  0  0  0  0  0  0  0  0  0
  -27.6840   -8.8650  -31.2620 N   0  0  0  0  0  0  0  0  0  0  0  0
  -28.0975   -9.2947  -30.0006 C   0  0  0  0  0  0  0  0  0  0  0  0
  -29.2272  -10.2496  -29.9098 C   0  0  0  0  0  0  0  0  0  0  0  0
  -29.9484  -10.8560  -30.7811 N   0  0  0  0  0  0  0  0  0  0  0  0
  1  2  2  0
  1  3  1  0
  3  4  1  0
  4  5  2  3
  5  6  1  0
M  END
>  <name>  (27) 
Car Nac Nd0 Car Car Nd0

>  <indices>  (27) 
[0, 1, 2]

>  <dummy>  (27) 
1

>  <tasks>  (27) 
probe_placing close_aromatic_ring close_aromatic_ring

>  <current_task>  (27) 
close_aromatic_ring

>  <prot_clashes>  (27) 
0

>  <NBS phar>  (27) 
0.2

>  <NBS_non-phar>  (27) 
0.8110699653625488

>  <NBS>  (27) 
1.0110699653625488

>  <source_stage>  (27) 
scored

>  <source_iter>  (27) 
2

>  <source_parent_mol>  (27) 
1

>  <source_scenario>  (27) 
0 1

>  <source_rank_in_scored_call>  (27) 
4

>  <source_current_task>  (27) 
close_aromatic_ring

>  <rotatable_bond_torsions>  (27) 
1,0,2,3;0,2,3,4

>  <scenario>  (27) 
0 1

>  <reason_to_skip>  (27) 
subgraph mismatch

$$$$

     RDKit          3D

  6  5  0  0  0  0  0  0  0  0999 V2000
  -28.3150   -7.8110  -32.1990 C   0  0  0  0  0  0  0  0  0  0  0  0
  -27.4720   -7.0040  -32.9050 N   0  0  0  0  0  0  0  0  0  0  0  0
  -28.4410   -9.1550  -32.5770 N   0  0  0  0  0  0  0  0  0  0  0  0
  -29.3520   -9.6600  -31.6480 C   0  0  0  0  0  0  0  0  0  0  0  0
  -28.8980  -10.8810  -30.9050 C   0  0  0  0  0  0  0  0  0  0  0  0
  -29.7844  -11.4455  -29.8249 C   0  0  0  0  0  0  0  0  0  0  0  0
  1  2  2  0
  1  3  1  0
  3  4  1  0
  4  5  2  3
  5  6  1  0
M  END
>  <name>  (1) 
Car Nac Nd0 Car Car Car

>  <indices>  (1) 
[0, 1, 2]

>  <dummy>  (1) 
1

>  <tasks>  (1) 
probe_placing close_aromatic_ring close_aromatic_ring

>  <current_task>  (1) 
close_aromatic_ring

>  <prot_clashes>  (1) 
3

>  <NBS phar>  (1) 
0.1

>  <NBS_non-phar>  (1) 
0.5627676963806152

>  <NBS>  (1) 
0.6627676963806152

>  <source_stage>  (1) 
scored

>  <source_iter>  (1) 
2

>  <source_parent_mol>  (1) 
1

>  <source_scenario>  (1) 
0 1

>  <source_rank_in_scored_call>  (1) 
9

>  <source_current_task>  (1) 
close_aromatic_ring

>  <rotatable_bond_torsions>  (1) 
1,0,2,3;0,2,3,4

>  <scenario>  (1) 
0 1

>  <reason_to_skip>  (1) 
incorrect arom ring closing

$$$$

     RDKit          3D

  6  5  0  0  0  0  0  0  0  0999 V2000
  -28.3150   -7.8110  -32.1990 C   0  0  0  0  0  0  0  0  0  0  0  0
  -27.4720   -7.0040  -32.9050 N   0  0  0  0  0  0  0  0  0  0  0  0
  -28.4410   -9.1550  -32.5770 N   0  0  0  0  0  0  0  0  0  0  0  0
  -29.3520   -9.6600  -31.6480 C   0  0  0  0  0  0  0  0  0  0  0  0
  -28.8980  -10.8810  -30.9050 C   0  0  0  0  0  0  0  0  0  0  0  0
  -27.8036  -11.6494  -30.8905 N   0  0  0  0  0  0  0  0  0  0  0  0
  1  2  2  0
  1  3  1  0
  3  4  1  0
  4  5  2  3
  5  6  1  0
M  END
>  <name>  (2) 
Car Nac Nd0 Car Car Nac

>  <indices>  (2) 
[0, 1, 2]

>  <dummy>  (2) 
1

>  <tasks>  (2) 
probe_placing close_aromatic_ring close_aromatic_ring

>  <current_task>  (2) 
close_aromatic_ring

>  <prot_clashes>  (2) 
3

>  <NBS phar>  (2) 
0.1

>  <NBS_non-phar>  (2) 
0.5627676963806152

>  <NBS>  (2) 
0.6627676963806152

>  <source_stage>  (2) 
scored

>  <source_iter>  (2) 
2

>  <source_parent_mol>  (2) 
1

>  <source_scenario>  (2) 
0 1

>  <source_rank_in_scored_call>  (2) 
9

>  <source_current_task>  (2) 
close_aromatic_ring

>  <rotatable_bond_torsions>  (2) 
1,0,2,3;0,2,3,4

>  <scenario>  (2) 
0 1

>  <reason_to_skip>  (2) 
bad angles

$$$$

     RDKit          3D

  6  5  0  0  0  0  0  0  0  0999 V2000
  -28.3150   -7.8110  -32.1990 C   0  0  0  0  0  0  0  0  0  0  0  0
  -27.4720   -7.0040  -32.9050 N   0  0  0  0  0  0  0  0  0  0  0  0
  -28.4410   -9.1550  -32.5770 N   0  0  0  0  0  0  0  0  0  0  0  0
  -29.3520   -9.6600  -31.6480 C   0  0  0  0  0  0  0  0  0  0  0  0
  -28.8980  -10.8810  -30.9050 C   0  0  0  0  0  0  0  0  0  0  0  0
  -29.9945  -11.0868  -30.0637 N   0  0  0  0  0  0  0  0  0  0  0  0
  1  2  2  0
  1  3  1  0
  3  4  1  0
  4  5  2  3
  5  6  1  0
M  END
>  <name>  (3) 
Car Nac Nd0 Car Car Nac

>  <indices>  (3) 
[0, 1, 2]

>  <dummy>  (3) 
1

>  <tasks>  (3) 
probe_placing close_aromatic_ring close_aromatic_ring

>  <current_task>  (3) 
close_aromatic_ring

>  <prot_clashes>  (3) 
3

>  <NBS phar>  (3) 
0.1

>  <NBS_non-phar>  (3) 
0.5627676963806152

>  <NBS>  (3) 
0.6627676963806152

>  <source_stage>  (3) 
scored

>  <source_iter>  (3) 
2

>  <source_parent_mol>  (3) 
1

>  <source_scenario>  (3) 
0 1

>  <source_rank_in_scored_call>  (3) 
9

>  <source_current_task>  (3) 
close_aromatic_ring

>  <rotatable_bond_torsions>  (3) 
1,0,2,3;0,2,3,4

>  <scenario>  (3) 
0 1

>  <reason_to_skip>  (3) 
incorrect arom ring closing

$$$$

     RDKit          3D

  6  5  0  0  0  0  0  0  0  0999 V2000
  -28.3150   -7.8110  -32.1990 C   0  0  0  0  0  0  0  0  0  0  0  0
  -27.4720   -7.0040  -32.9050 N   0  0  0  0  0  0  0  0  0  0  0  0
  -28.4410   -9.1550  -32.5770 N   0  0  0  0  0  0  0  0  0  0  0  0
  -29.3520   -9.6600  -31.6480 C   0  0  0  0  0  0  0  0  0  0  0  0
  -28.8980  -10.8810  -30.9050 C   0  0  0  0  0  0  0  0  0  0  0  0
  -27.7244  -11.6683  -30.8835 C   0  0  0  0  0  0  0  0  0  0  0  0
  1  2  2  0
  1  3  1  0
  3  4  1  0
  4  5  2  3
  5  6  1  0
M  END
>  <name>  (4) 
Car Nac Nd0 Car Car Car

>  <indices>  (4) 
[0, 1, 2]

>  <dummy>  (4) 
1

>  <tasks>  (4) 
probe_placing close_aromatic_ring close_aromatic_ring

>  <current_task>  (4) 
close_aromatic_ring

>  <prot_clashes>  (4) 
3

>  <NBS phar>  (4) 
0.1

>  <NBS_non-phar>  (4) 
0.5627676963806152

>  <NBS>  (4) 
0.6627676963806152

>  <source_stage>  (4) 
scored

>  <source_iter>  (4) 
2

>  <source_parent_mol>  (4) 
1

>  <source_scenario>  (4) 
0 1

>  <source_rank_in_scored_call>  (4) 
9

>  <source_current_task>  (4) 
close_aromatic_ring

>  <rotatable_bond_torsions>  (4) 
1,0,2,3;0,2,3,4

>  <scenario>  (4) 
0 1

>  <reason_to_skip>  (4) 
bad angles

$$$$

     RDKit          3D

  6  5  0  0  0  0  0  0  0  0999 V2000
  -28.3150   -7.8110  -32.1990 C   0  0  0  0  0  0  0  0  0  0  0  0
  -27.4720   -7.0040  -32.9050 N   0  0  0  0  0  0  0  0  0  0  0  0
  -28.4410   -9.1550  -32.5770 N   0  0  0  0  0  0  0  0  0  0  0  0
  -29.3520   -9.6600  -31.6480 C   0  0  0  0  0  0  0  0  0  0  0  0
  -28.8980  -10.8810  -30.9050 C   0  0  0  0  0  0  0  0  0  0  0  0
  -29.8246  -11.3885  -29.9838 C   0  0  0  0  0  0  0  0  0  0  0  0
  1  2  2  0
  1  3  1  0
  3  4  1  0
  4  5  2  3
  5  6  1  0
M  END
>  <name>  (5) 
Car Nac Nd0 Car Car Car

>  <indices>  (5) 
[0, 1, 2]

>  <dummy>  (5) 
1

>  <tasks>  (5) 
probe_placing close_aromatic_ring close_aromatic_ring

>  <current_task>  (5) 
close_aromatic_ring

>  <prot_clashes>  (5) 
3

>  <NBS phar>  (5) 
0.1

>  <NBS_non-phar>  (5) 
0.5627676963806152

>  <NBS>  (5) 
0.6627676963806152

>  <source_stage>  (5) 
scored

>  <source_iter>  (5) 
2

>  <source_parent_mol>  (5) 
1

>  <source_scenario>  (5) 
0 1

>  <source_rank_in_scored_call>  (5) 
9

>  <source_current_task>  (5) 
close_aromatic_ring

>  <rotatable_bond_torsions>  (5) 
1,0,2,3;0,2,3,4

>  <scenario>  (5) 
0 1

>  <reason_to_skip>  (5) 
incorrect arom ring closing

$$$$

     RDKit          3D

  6  5  0  0  0  0  0  0  0  0999 V2000
  -28.3150   -7.8110  -32.1990 C   0  0  0  0  0  0  0  0  0  0  0  0
  -27.4720   -7.0040  -32.9050 N   0  0  0  0  0  0  0  0  0  0  0  0
  -28.4410   -9.1550  -32.5770 N   0  0  0  0  0  0  0  0  0  0  0  0
  -29.3520   -9.6600  -31.6480 C   0  0  0  0  0  0  0  0  0  0  0  0
  -28.8980  -10.8810  -30.9050 C   0  0  0  0  0  0  0  0  0  0  0  0
  -27.6345  -11.0825  -31.4719 N   0  0  0  0  0  0  0  0  0  0  0  0
  1  2  2  0
  1  3  1  0
  3  4  1  0
  4  5  2  3
  5  6  1  0
M  END
>  <name>  (6) 
Car Nac Nd0 Car Car Nac

>  <indices>  (6) 
[0, 1, 2]

>  <dummy>  (6) 
1

>  <tasks>  (6) 
probe_placing close_aromatic_ring close_aromatic_ring

>  <current_task>  (6) 
close_aromatic_ring

>  <prot_clashes>  (6) 
3

>  <NBS phar>  (6) 
0.1

>  <NBS_non-phar>  (6) 
0.5627676963806152

>  <NBS>  (6) 
0.6627676963806152

>  <source_stage>  (6) 
scored

>  <source_iter>  (6) 
2

>  <source_parent_mol>  (6) 
1

>  <source_scenario>  (6) 
0 1

>  <source_rank_in_scored_call>  (6) 
9

>  <source_current_task>  (6) 
close_aromatic_ring

>  <rotatable_bond_torsions>  (6) 
1,0,2,3;0,2,3,4

>  <scenario>  (6) 
0 1

>  <reason_to_skip>  (6) 
incorrect arom ring closing

$$$$

     RDKit          3D

  6  5  0  0  0  0  0  0  0  0999 V2000
  -28.3150   -7.8110  -32.1990 C   0  0  0  0  0  0  0  0  0  0  0  0
  -27.4720   -7.0040  -32.9050 N   0  0  0  0  0  0  0  0  0  0  0  0
  -28.4410   -9.1550  -32.5770 N   0  0  0  0  0  0  0  0  0  0  0  0
  -29.3520   -9.6600  -31.6480 C   0  0  0  0  0  0  0  0  0  0  0  0
  -28.8980  -10.8810  -30.9050 C   0  0  0  0  0  0  0  0  0  0  0  0
  -27.6090  -11.0601  -31.4658 C   0  0  0  0  0  0  0  0  0  0  0  0
  1  2  2  0
  1  3  1  0
  3  4  1  0
  4  5  2  3
  5  6  1  0
M  END
>  <name>  (7) 
Car Nac Nd0 Car Car Car

>  <indices>  (7) 
[0, 1, 2]

>  <dummy>  (7) 
1

>  <tasks>  (7) 
probe_placing close_aromatic_ring close_aromatic_ring

>  <current_task>  (7) 
close_aromatic_ring

>  <prot_clashes>  (7) 
3

>  <NBS phar>  (7) 
0.1

>  <NBS_non-phar>  (7) 
0.5627676963806152

>  <NBS>  (7) 
0.6627676963806152

>  <source_stage>  (7) 
scored

>  <source_iter>  (7) 
2

>  <source_parent_mol>  (7) 
1

>  <source_scenario>  (7) 
0 1

>  <source_rank_in_scored_call>  (7) 
9

>  <source_current_task>  (7) 
close_aromatic_ring

>  <rotatable_bond_torsions>  (7) 
1,0,2,3;0,2,3,4

>  <scenario>  (7) 
0 1

>  <reason_to_skip>  (7) 
incorrect arom ring closing

$$$$

     RDKit          3D

  6  5  0  0  0  0  0  0  0  0999 V2000
  -28.3150   -7.8110  -32.1990 C   0  0  0  0  0  0  0  0  0  0  0  0
  -27.4720   -7.0040  -32.9050 N   0  0  0  0  0  0  0  0  0  0  0  0
  -28.4410   -9.1550  -32.5770 N   0  0  0  0  0  0  0  0  0  0  0  0
  -29.3520   -9.6600  -31.6480 C   0  0  0  0  0  0  0  0  0  0  0  0
  -28.8980  -10.8810  -30.9050 C   0  0  0  0  0  0  0  0  0  0  0  0
    0.0000    0.0000    0.0000 O   0  0  0  0  0  0  0  0  0  0  0  0
  1  2  2  0
  1  3  1  0
  3  4  1  0
  4  5  2  3
  5  6  1  0
M  END
>  <name>  (8) 
Car Nac Nd0 Car Car O_a

>  <indices>  (8) 
[0, 1, 2]

>  <dummy>  (8) 
1

>  <tasks>  (8) 
probe_placing close_aromatic_ring close_aromatic_ring

>  <current_task>  (8) 
close_aromatic_ring

>  <prot_clashes>  (8) 
3

>  <NBS phar>  (8) 
0.1

>  <NBS_non-phar>  (8) 
0.5627676963806152

>  <NBS>  (8) 
0.6627676963806152

>  <source_stage>  (8) 
scored

>  <source_iter>  (8) 
2

>  <source_parent_mol>  (8) 
1

>  <source_scenario>  (8) 
0 1

>  <source_rank_in_scored_call>  (8) 
9

>  <source_current_task>  (8) 
close_aromatic_ring

>  <rotatable_bond_torsions>  (8) 
1,0,2,3;0,2,3,4

>  <scenario>  (8) 
0 1

>  <reason_to_skip>  (8) 
some_atom_counter_exceeded

$$$$

     RDKit          3D

  6  5  0  0  0  0  0  0  0  0999 V2000
  -28.3150   -7.8110  -32.1990 C   0  0  0  0  0  0  0  0  0  0  0  0
  -27.4720   -7.0040  -32.9050 N   0  0  0  0  0  0  0  0  0  0  0  0
  -28.4410   -9.1550  -32.5770 N   0  0  0  0  0  0  0  0  0  0  0  0
  -29.3520   -9.6600  -31.6480 C   0  0  0  0  0  0  0  0  0  0  0  0
  -28.8980  -10.8810  -30.9050 C   0  0  0  0  0  0  0  0  0  0  0  0
  -29.4792  -11.6209  -29.9711 N   0  0  0  0  0  0  0  0  0  0  0  0
  1  2  2  0
  1  3  1  0
  3  4  1  0
  4  5  2  3
  5  6  1  0
M  END
>  <name>  (9) 
Car Nac Nd0 Car Car Nd0

>  <indices>  (9) 
[0, 1, 2]

>  <dummy>  (9) 
1

>  <tasks>  (9) 
probe_placing close_aromatic_ring close_aromatic_ring

>  <current_task>  (9) 
close_aromatic_ring

>  <prot_clashes>  (9) 
3

>  <NBS phar>  (9) 
0.1

>  <NBS_non-phar>  (9) 
0.5627676963806152

>  <NBS>  (9) 
0.6627676963806152

>  <source_stage>  (9) 
scored

>  <source_iter>  (9) 
2

>  <source_parent_mol>  (9) 
1

>  <source_scenario>  (9) 
0 1

>  <source_rank_in_scored_call>  (9) 
9

>  <source_current_task>  (9) 
close_aromatic_ring

>  <rotatable_bond_torsions>  (9) 
1,0,2,3;0,2,3,4

>  <scenario>  (9) 
0 1

>  <reason_to_skip>  (9) 
incorrect arom ring closing

$$$$

     RDKit          3D

  6  5  0  0  0  0  0  0  0  0999 V2000
  -28.3150   -7.8110  -32.1990 C   0  0  0  0  0  0  0  0  0  0  0  0
  -27.4720   -7.0040  -32.9050 N   0  0  0  0  0  0  0  0  0  0  0  0
  -28.4410   -9.1550  -32.5770 N   0  0  0  0  0  0  0  0  0  0  0  0
  -29.3520   -9.6600  -31.6480 C   0  0  0  0  0  0  0  0  0  0  0  0
  -28.8980  -10.8810  -30.9050 C   0  0  0  0  0  0  0  0  0  0  0  0
  -29.7609  -11.3983  -29.9759 N   0  0  0  0  0  0  0  0  0  0  0  0
  1  2  2  0
  1  3  1  0
  3  4  1  0
  4  5  2  3
  5  6  1  0
M  END
>  <name>  (10) 
Car Nac Nd0 Car Car Nac

>  <indices>  (10) 
[0, 1, 2]

>  <dummy>  (10) 
1

>  <tasks>  (10) 
probe_placing close_aromatic_ring close_aromatic_ring

>  <current_task>  (10) 
close_aromatic_ring

>  <prot_clashes>  (10) 
3

>  <NBS phar>  (10) 
0.1

>  <NBS_non-phar>  (10) 
0.5627676963806152

>  <NBS>  (10) 
0.6627676963806152

>  <source_stage>  (10) 
scored

>  <source_iter>  (10) 
2

>  <source_parent_mol>  (10) 
1

>  <source_scenario>  (10) 
0 1

>  <source_rank_in_scored_call>  (10) 
9

>  <source_current_task>  (10) 
close_aromatic_ring

>  <rotatable_bond_torsions>  (10) 
1,0,2,3;0,2,3,4

>  <scenario>  (10) 
0 1

>  <reason_to_skip>  (10) 
incorrect arom ring closing

$$$$

     RDKit          3D

  6  5  0  0  0  0  0  0  0  0999 V2000
  -28.3150   -7.8110  -32.1990 C   0  0  0  0  0  0  0  0  0  0  0  0
  -27.4720   -7.0040  -32.9050 N   0  0  0  0  0  0  0  0  0  0  0  0
  -28.4410   -9.1550  -32.5770 N   0  0  0  0  0  0  0  0  0  0  0  0
  -29.3520   -9.6600  -31.6480 C   0  0  0  0  0  0  0  0  0  0  0  0
  -28.8980  -10.8810  -30.9050 C   0  0  0  0  0  0  0  0  0  0  0  0
    0.0000    0.0000    0.0000 O   0  0  0  0  0  0  0  0  0  0  0  0
  1  2  2  0
  1  3  1  0
  3  4  1  0
  4  5  2  3
  5  6  1  0
M  END
>  <name>  (11) 
Car Nac Nd0 Car Car O_a

>  <indices>  (11) 
[0, 1, 2]

>  <dummy>  (11) 
1

>  <tasks>  (11) 
probe_placing close_aromatic_ring close_aromatic_ring

>  <current_task>  (11) 
close_aromatic_ring

>  <prot_clashes>  (11) 
3

>  <NBS phar>  (11) 
0.1

>  <NBS_non-phar>  (11) 
0.5627676963806152

>  <NBS>  (11) 
0.6627676963806152

>  <source_stage>  (11) 
scored

>  <source_iter>  (11) 
2

>  <source_parent_mol>  (11) 
1

>  <source_scenario>  (11) 
0 1

>  <source_rank_in_scored_call>  (11) 
9

>  <source_current_task>  (11) 
close_aromatic_ring

>  <rotatable_bond_torsions>  (11) 
1,0,2,3;0,2,3,4

>  <scenario>  (11) 
0 1

>  <reason_to_skip>  (11) 
some_atom_counter_exceeded

$$$$

     RDKit          3D

  6  5  0  0  0  0  0  0  0  0999 V2000
  -28.3150   -7.8110  -32.1990 C   0  0  0  0  0  0  0  0  0  0  0  0
  -27.4720   -7.0040  -32.9050 N   0  0  0  0  0  0  0  0  0  0  0  0
  -28.4410   -9.1550  -32.5770 N   0  0  0  0  0  0  0  0  0  0  0  0
  -29.3520   -9.6600  -31.6480 C   0  0  0  0  0  0  0  0  0  0  0  0
  -28.8980  -10.8810  -30.9050 C   0  0  0  0  0  0  0  0  0  0  0  0
  -28.4030  -10.5246  -29.6465 C   0  0  0  0  0  0  0  0  0  0  0  0
  1  2  2  0
  1  3  1  0
  3  4  1  0
  4  5  2  3
  5  6  1  0
M  END
>  <name>  (12) 
Car Nac Nd0 Car Car Car

>  <indices>  (12) 
[0, 1, 2]

>  <dummy>  (12) 
1

>  <tasks>  (12) 
probe_placing close_aromatic_ring close_aromatic_ring

>  <current_task>  (12) 
close_aromatic_ring

>  <prot_clashes>  (12) 
3

>  <NBS phar>  (12) 
0.1

>  <NBS_non-phar>  (12) 
0.5627676963806152

>  <NBS>  (12) 
0.6627676963806152

>  <source_stage>  (12) 
scored

>  <source_iter>  (12) 
2

>  <source_parent_mol>  (12) 
1

>  <source_scenario>  (12) 
0 1

>  <source_rank_in_scored_call>  (12) 
9

>  <source_current_task>  (12) 
close_aromatic_ring

>  <rotatable_bond_torsions>  (12) 
1,0,2,3;0,2,3,4

>  <scenario>  (12) 
0 1

>  <reason_to_skip>  (12) 
incorrect arom ring closing

$$$$

     RDKit          3D

  6  5  0  0  0  0  0  0  0  0999 V2000
  -28.3150   -7.8110  -32.1990 C   0  0  0  0  0  0  0  0  0  0  0  0
  -27.4720   -7.0040  -32.9050 N   0  0  0  0  0  0  0  0  0  0  0  0
  -28.4410   -9.1550  -32.5770 N   0  0  0  0  0  0  0  0  0  0  0  0
  -29.3520   -9.6600  -31.6480 C   0  0  0  0  0  0  0  0  0  0  0  0
  -28.8980  -10.8810  -30.9050 C   0  0  0  0  0  0  0  0  0  0  0  0
  -27.7042  -11.3819  -31.1393 N   0  0  0  0  0  0  0  0  0  0  0  0
  1  2  2  0
  1  3  1  0
  3  4  1  0
  4  5  2  3
  5  6  1  0
M  END
>  <name>  (13) 
Car Nac Nd0 Car Car Nd0

>  <indices>  (13) 
[0, 1, 2]

>  <dummy>  (13) 
1

>  <tasks>  (13) 
probe_placing close_aromatic_ring close_aromatic_ring

>  <current_task>  (13) 
close_aromatic_ring

>  <prot_clashes>  (13) 
3

>  <NBS phar>  (13) 
0.1

>  <NBS_non-phar>  (13) 
0.5627676963806152

>  <NBS>  (13) 
0.6627676963806152

>  <source_stage>  (13) 
scored

>  <source_iter>  (13) 
2

>  <source_parent_mol>  (13) 
1

>  <source_scenario>  (13) 
0 1

>  <source_rank_in_scored_call>  (13) 
9

>  <source_current_task>  (13) 
close_aromatic_ring

>  <rotatable_bond_torsions>  (13) 
1,0,2,3;0,2,3,4

>  <scenario>  (13) 
0 1

>  <reason_to_skip>  (13) 
intramol repulsion

$$$$

     RDKit          3D

  6  5  0  0  0  0  0  0  0  0999 V2000
  -28.3150   -7.8110  -32.1990 C   0  0  0  0  0  0  0  0  0  0  0  0
  -27.4720   -7.0040  -32.9050 N   0  0  0  0  0  0  0  0  0  0  0  0
  -28.4410   -9.1550  -32.5770 N   0  0  0  0  0  0  0  0  0  0  0  0
  -29.3520   -9.6600  -31.6480 C   0  0  0  0  0  0  0  0  0  0  0  0
  -28.8980  -10.8810  -30.9050 C   0  0  0  0  0  0  0  0  0  0  0  0
  -29.7426  -11.3452  -30.0227 N   0  0  0  0  0  0  0  0  0  0  0  0
  1  2  2  0
  1  3  1  0
  3  4  1  0
  4  5  2  3
  5  6  1  0
M  END
>  <name>  (14) 
Car Nac Nd0 Car Car Nd0

>  <indices>  (14) 
[0, 1, 2]

>  <dummy>  (14) 
1

>  <tasks>  (14) 
probe_placing close_aromatic_ring close_aromatic_ring

>  <current_task>  (14) 
close_aromatic_ring

>  <prot_clashes>  (14) 
3

>  <NBS phar>  (14) 
0.1

>  <NBS_non-phar>  (14) 
0.5627676963806152

>  <NBS>  (14) 
0.6627676963806152

>  <source_stage>  (14) 
scored

>  <source_iter>  (14) 
2

>  <source_parent_mol>  (14) 
1

>  <source_scenario>  (14) 
0 1

>  <source_rank_in_scored_call>  (14) 
9

>  <source_current_task>  (14) 
close_aromatic_ring

>  <rotatable_bond_torsions>  (14) 
1,0,2,3;0,2,3,4

>  <scenario>  (14) 
0 1

>  <reason_to_skip>  (14) 
incorrect arom ring closing

$$$$

     RDKit          3D

  6  5  0  0  0  0  0  0  0  0999 V2000
  -28.3150   -7.8110  -32.1990 C   0  0  0  0  0  0  0  0  0  0  0  0
  -27.4720   -7.0040  -32.9050 N   0  0  0  0  0  0  0  0  0  0  0  0
  -28.4410   -9.1550  -32.5770 N   0  0  0  0  0  0  0  0  0  0  0  0
  -29.3520   -9.6600  -31.6480 C   0  0  0  0  0  0  0  0  0  0  0  0
  -28.8980  -10.8810  -30.9050 C   0  0  0  0  0  0  0  0  0  0  0  0
    0.0000    0.0000    0.0000 S   0  0  0  0  0  0  0  0  0  0  0  0
  1  2  2  0
  1  3  1  0
  3  4  1  0
  4  5  2  3
  5  6  1  0
M  END
>  <name>  (15) 
Car Nac Nd0 Car Car Sul

>  <indices>  (15) 
[0, 1, 2]

>  <dummy>  (15) 
1

>  <tasks>  (15) 
probe_placing close_aromatic_ring close_aromatic_ring

>  <current_task>  (15) 
close_aromatic_ring

>  <prot_clashes>  (15) 
3

>  <NBS phar>  (15) 
0.1

>  <NBS_non-phar>  (15) 
0.5627676963806152

>  <NBS>  (15) 
0.6627676963806152

>  <source_stage>  (15) 
scored

>  <source_iter>  (15) 
2

>  <source_parent_mol>  (15) 
1

>  <source_scenario>  (15) 
0 1

>  <source_rank_in_scored_call>  (15) 
9

>  <source_current_task>  (15) 
close_aromatic_ring

>  <rotatable_bond_torsions>  (15) 
1,0,2,3;0,2,3,4

>  <scenario>  (15) 
0 1

>  <reason_to_skip>  (15) 
some_atom_counter_exceeded

$$$$

     RDKit          3D

  6  5  0  0  0  0  0  0  0  0999 V2000
  -28.3150   -7.8110  -32.1990 C   0  0  0  0  0  0  0  0  0  0  0  0
  -27.4720   -7.0040  -32.9050 N   0  0  0  0  0  0  0  0  0  0  0  0
  -28.4410   -9.1550  -32.5770 N   0  0  0  0  0  0  0  0  0  0  0  0
  -29.3520   -9.6600  -31.6480 C   0  0  0  0  0  0  0  0  0  0  0  0
  -28.8980  -10.8810  -30.9050 C   0  0  0  0  0  0  0  0  0  0  0  0
  -28.5456  -10.8141  -29.5274 C   0  0  0  0  0  0  0  0  0  0  0  0
  1  2  2  0
  1  3  1  0
  3  4  1  0
  4  5  2  3
  5  6  1  0
M  END
>  <name>  (16) 
Car Nac Nd0 Car Car Car

>  <indices>  (16) 
[0, 1, 2]

>  <dummy>  (16) 
1

>  <tasks>  (16) 
probe_placing close_aromatic_ring close_aromatic_ring

>  <current_task>  (16) 
close_aromatic_ring

>  <prot_clashes>  (16) 
3

>  <NBS phar>  (16) 
0.1

>  <NBS_non-phar>  (16) 
0.5627676963806152

>  <NBS>  (16) 
0.6627676963806152

>  <source_stage>  (16) 
scored

>  <source_iter>  (16) 
2

>  <source_parent_mol>  (16) 
1

>  <source_scenario>  (16) 
0 1

>  <source_rank_in_scored_call>  (16) 
9

>  <source_current_task>  (16) 
close_aromatic_ring

>  <rotatable_bond_torsions>  (16) 
1,0,2,3;0,2,3,4

>  <scenario>  (16) 
0 1

>  <reason_to_skip>  (16) 
incorrect arom ring closing

$$$$

     RDKit          3D

  6  5  0  0  0  0  0  0  0  0999 V2000
  -28.3150   -7.8110  -32.1990 C   0  0  0  0  0  0  0  0  0  0  0  0
  -27.4720   -7.0040  -32.9050 N   0  0  0  0  0  0  0  0  0  0  0  0
  -28.4410   -9.1550  -32.5770 N   0  0  0  0  0  0  0  0  0  0  0  0
  -29.3520   -9.6600  -31.6480 C   0  0  0  0  0  0  0  0  0  0  0  0
  -28.8980  -10.8810  -30.9050 C   0  0  0  0  0  0  0  0  0  0  0  0
  -27.8392  -11.5844  -30.8660 N   0  0  0  0  0  0  0  0  0  0  0  0
  1  2  2  0
  1  3  1  0
  3  4  1  0
  4  5  2  3
  5  6  1  0
M  END
>  <name>  (17) 
Car Nac Nd0 Car Car Nd0

>  <indices>  (17) 
[0, 1, 2]

>  <dummy>  (17) 
1

>  <tasks>  (17) 
probe_placing close_aromatic_ring close_aromatic_ring

>  <current_task>  (17) 
close_aromatic_ring

>  <prot_clashes>  (17) 
3

>  <NBS phar>  (17) 
0.1

>  <NBS_non-phar>  (17) 
0.5627676963806152

>  <NBS>  (17) 
0.6627676963806152

>  <source_stage>  (17) 
scored

>  <source_iter>  (17) 
2

>  <source_parent_mol>  (17) 
1

>  <source_scenario>  (17) 
0 1

>  <source_rank_in_scored_call>  (17) 
9

>  <source_current_task>  (17) 
close_aromatic_ring

>  <rotatable_bond_torsions>  (17) 
1,0,2,3;0,2,3,4

>  <scenario>  (17) 
0 1

>  <reason_to_skip>  (17) 
bad angles

$$$$

     RDKit          3D

  6  5  0  0  0  0  0  0  0  0999 V2000
  -28.3150   -7.8110  -32.1990 C   0  0  0  0  0  0  0  0  0  0  0  0
  -27.4720   -7.0040  -32.9050 N   0  0  0  0  0  0  0  0  0  0  0  0
  -28.4410   -9.1550  -32.5770 N   0  0  0  0  0  0  0  0  0  0  0  0
  -29.3520   -9.6600  -31.6480 C   0  0  0  0  0  0  0  0  0  0  0  0
  -28.8980  -10.8810  -30.9050 C   0  0  0  0  0  0  0  0  0  0  0  0
    0.0000    0.0000    0.0000 O   0  0  0  0  0  0  0  0  0  0  0  0
  1  2  2  0
  1  3  1  0
  3  4  1  0
  4  5  2  3
  5  6  1  0
M  END
>  <name>  (18) 
Car Nac Nd0 Car Car O_a

>  <indices>  (18) 
[0, 1, 2]

>  <dummy>  (18) 
1

>  <tasks>  (18) 
probe_placing close_aromatic_ring close_aromatic_ring

>  <current_task>  (18) 
close_aromatic_ring

>  <prot_clashes>  (18) 
3

>  <NBS phar>  (18) 
0.1

>  <NBS_non-phar>  (18) 
0.5627676963806152

>  <NBS>  (18) 
0.6627676963806152

>  <source_stage>  (18) 
scored

>  <source_iter>  (18) 
2

>  <source_parent_mol>  (18) 
1

>  <source_scenario>  (18) 
0 1

>  <source_rank_in_scored_call>  (18) 
9

>  <source_current_task>  (18) 
close_aromatic_ring

>  <rotatable_bond_torsions>  (18) 
1,0,2,3;0,2,3,4

>  <scenario>  (18) 
0 1

>  <reason_to_skip>  (18) 
some_atom_counter_exceeded

$$$$

     RDKit          3D

  6  5  0  0  0  0  0  0  0  0999 V2000
  -28.3150   -7.8110  -32.1990 C   0  0  0  0  0  0  0  0  0  0  0  0
  -27.4720   -7.0040  -32.9050 N   0  0  0  0  0  0  0  0  0  0  0  0
  -28.4410   -9.1550  -32.5770 N   0  0  0  0  0  0  0  0  0  0  0  0
  -29.3520   -9.6600  -31.6480 C   0  0  0  0  0  0  0  0  0  0  0  0
  -28.8980  -10.8810  -30.9050 C   0  0  0  0  0  0  0  0  0  0  0  0
    0.0000    0.0000    0.0000 S   0  0  0  0  0  0  0  0  0  0  0  0
  1  2  2  0
  1  3  1  0
  3  4  1  0
  4  5  2  3
  5  6  1  0
M  END
>  <name>  (19) 
Car Nac Nd0 Car Car Sul

>  <indices>  (19) 
[0, 1, 2]

>  <dummy>  (19) 
1

>  <tasks>  (19) 
probe_placing close_aromatic_ring close_aromatic_ring

>  <current_task>  (19) 
close_aromatic_ring

>  <prot_clashes>  (19) 
3

>  <NBS phar>  (19) 
0.1

>  <NBS_non-phar>  (19) 
0.5627676963806152

>  <NBS>  (19) 
0.6627676963806152

>  <source_stage>  (19) 
scored

>  <source_iter>  (19) 
2

>  <source_parent_mol>  (19) 
1

>  <source_scenario>  (19) 
0 1

>  <source_rank_in_scored_call>  (19) 
9

>  <source_current_task>  (19) 
close_aromatic_ring

>  <rotatable_bond_torsions>  (19) 
1,0,2,3;0,2,3,4

>  <scenario>  (19) 
0 1

>  <reason_to_skip>  (19) 
some_atom_counter_exceeded

$$$$

     RDKit          3D

  6  5  0  0  0  0  0  0  0  0999 V2000
  -28.3150   -7.8110  -32.1990 C   0  0  0  0  0  0  0  0  0  0  0  0
  -27.4720   -7.0040  -32.9050 N   0  0  0  0  0  0  0  0  0  0  0  0
  -28.4410   -9.1550  -32.5770 N   0  0  0  0  0  0  0  0  0  0  0  0
  -29.3520   -9.6600  -31.6480 C   0  0  0  0  0  0  0  0  0  0  0  0
  -28.8980  -10.8810  -30.9050 C   0  0  0  0  0  0  0  0  0  0  0  0
    0.0000    0.0000    0.0000 S   0  0  0  0  0  0  0  0  0  0  0  0
  1  2  2  0
  1  3  1  0
  3  4  1  0
  4  5  2  3
  5  6  1  0
M  END
>  <name>  (20) 
Car Nac Nd0 Car Car Sul

>  <indices>  (20) 
[0, 1, 2]

>  <dummy>  (20) 
1

>  <tasks>  (20) 
probe_placing close_aromatic_ring close_aromatic_ring

>  <current_task>  (20) 
close_aromatic_ring

>  <prot_clashes>  (20) 
3

>  <NBS phar>  (20) 
0.1

>  <NBS_non-phar>  (20) 
0.5627676963806152

>  <NBS>  (20) 
0.6627676963806152

>  <source_stage>  (20) 
scored

>  <source_iter>  (20) 
2

>  <source_parent_mol>  (20) 
1

>  <source_scenario>  (20) 
0 1

>  <source_rank_in_scored_call>  (20) 
9

>  <source_current_task>  (20) 
close_aromatic_ring

>  <rotatable_bond_torsions>  (20) 
1,0,2,3;0,2,3,4

>  <scenario>  (20) 
0 1

>  <reason_to_skip>  (20) 
some_atom_counter_exceeded

$$$$

     RDKit          3D

  6  5  0  0  0  0  0  0  0  0999 V2000
  -28.3150   -7.8110  -32.1990 C   0  0  0  0  0  0  0  0  0  0  0  0
  -27.4720   -7.0040  -32.9050 N   0  0  0  0  0  0  0  0  0  0  0  0
  -28.4410   -9.1550  -32.5770 N   0  0  0  0  0  0  0  0  0  0  0  0
  -29.3520   -9.6600  -31.6480 C   0  0  0  0  0  0  0  0  0  0  0  0
  -28.8980  -10.8810  -30.9050 C   0  0  0  0  0  0  0  0  0  0  0  0
    0.0000    0.0000    0.0000 S   0  0  0  0  0  0  0  0  0  0  0  0
  1  2  2  0
  1  3  1  0
  3  4  1  0
  4  5  2  3
  5  6  1  0
M  END
>  <name>  (21) 
Car Nac Nd0 Car Car Sul

>  <indices>  (21) 
[0, 1, 2]

>  <dummy>  (21) 
1

>  <tasks>  (21) 
probe_placing close_aromatic_ring close_aromatic_ring

>  <current_task>  (21) 
close_aromatic_ring

>  <prot_clashes>  (21) 
3

>  <NBS phar>  (21) 
0.1

>  <NBS_non-phar>  (21) 
0.5627676963806152

>  <NBS>  (21) 
0.6627676963806152

>  <source_stage>  (21) 
scored

>  <source_iter>  (21) 
2

>  <source_parent_mol>  (21) 
1

>  <source_scenario>  (21) 
0 1

>  <source_rank_in_scored_call>  (21) 
9

>  <source_current_task>  (21) 
close_aromatic_ring

>  <rotatable_bond_torsions>  (21) 
1,0,2,3;0,2,3,4

>  <scenario>  (21) 
0 1

>  <reason_to_skip>  (21) 
some_atom_counter_exceeded

$$$$

     RDKit          3D

  6  5  0  0  0  0  0  0  0  0999 V2000
  -28.3150   -7.8110  -32.1990 C   0  0  0  0  0  0  0  0  0  0  0  0
  -27.4720   -7.0040  -32.9050 N   0  0  0  0  0  0  0  0  0  0  0  0
  -28.4410   -9.1550  -32.5770 N   0  0  0  0  0  0  0  0  0  0  0  0
  -29.3520   -9.6600  -31.6480 C   0  0  0  0  0  0  0  0  0  0  0  0
  -28.8980  -10.8810  -30.9050 C   0  0  0  0  0  0  0  0  0  0  0  0
    0.0000    0.0000    0.0000 O   0  0  0  0  0  0  0  0  0  0  0  0
  1  2  2  0
  1  3  1  0
  3  4  1  0
  4  5  2  3
  5  6  1  0
M  END
>  <name>  (22) 
Car Nac Nd0 Car Car O_a

>  <indices>  (22) 
[0, 1, 2]

>  <dummy>  (22) 
1

>  <tasks>  (22) 
probe_placing close_aromatic_ring close_aromatic_ring

>  <current_task>  (22) 
close_aromatic_ring

>  <prot_clashes>  (22) 
3

>  <NBS phar>  (22) 
0.1

>  <NBS_non-phar>  (22) 
0.5627676963806152

>  <NBS>  (22) 
0.6627676963806152

>  <source_stage>  (22) 
scored

>  <source_iter>  (22) 
2

>  <source_parent_mol>  (22) 
1

>  <source_scenario>  (22) 
0 1

>  <source_rank_in_scored_call>  (22) 
9

>  <source_current_task>  (22) 
close_aromatic_ring

>  <rotatable_bond_torsions>  (22) 
1,0,2,3;0,2,3,4

>  <scenario>  (22) 
0 1

>  <reason_to_skip>  (22) 
some_atom_counter_exceeded

$$$$

     RDKit          3D

  6  5  0  0  0  0  0  0  0  0999 V2000
  -28.3150   -7.8110  -32.1990 C   0  0  0  0  0  0  0  0  0  0  0  0
  -27.4720   -7.0040  -32.9050 N   0  0  0  0  0  0  0  0  0  0  0  0
  -28.4410   -9.1550  -32.5770 N   0  0  0  0  0  0  0  0  0  0  0  0
  -29.3520   -9.6600  -31.6480 C   0  0  0  0  0  0  0  0  0  0  0  0
  -28.8980  -10.8810  -30.9050 C   0  0  0  0  0  0  0  0  0  0  0  0
    0.0000    0.0000    0.0000 S   0  0  0  0  0  0  0  0  0  0  0  0
  1  2  2  0
  1  3  1  0
  3  4  1  0
  4  5  2  3
  5  6  1  0
M  END
>  <name>  (23) 
Car Nac Nd0 Car Car Sul

>  <indices>  (23) 
[0, 1, 2]

>  <dummy>  (23) 
1

>  <tasks>  (23) 
probe_placing close_aromatic_ring close_aromatic_ring

>  <current_task>  (23) 
close_aromatic_ring

>  <prot_clashes>  (23) 
3

>  <NBS phar>  (23) 
0.1

>  <NBS_non-phar>  (23) 
0.5627676963806152

>  <NBS>  (23) 
0.6627676963806152

>  <source_stage>  (23) 
scored

>  <source_iter>  (23) 
2

>  <source_parent_mol>  (23) 
1

>  <source_scenario>  (23) 
0 1

>  <source_rank_in_scored_call>  (23) 
9

>  <source_current_task>  (23) 
close_aromatic_ring

>  <rotatable_bond_torsions>  (23) 
1,0,2,3;0,2,3,4

>  <scenario>  (23) 
0 1

>  <reason_to_skip>  (23) 
some_atom_counter_exceeded

$$$$

     RDKit          3D

  6  5  0  0  0  0  0  0  0  0999 V2000
  -28.3150   -7.8110  -32.1990 C   0  0  0  0  0  0  0  0  0  0  0  0
  -27.4720   -7.0040  -32.9050 N   0  0  0  0  0  0  0  0  0  0  0  0
  -28.4410   -9.1550  -32.5770 N   0  0  0  0  0  0  0  0  0  0  0  0
  -29.3520   -9.6600  -31.6480 C   0  0  0  0  0  0  0  0  0  0  0  0
  -28.8980  -10.8810  -30.9050 C   0  0  0  0  0  0  0  0  0  0  0  0
    0.0000    0.0000    0.0000 S   0  0  0  0  0  0  0  0  0  0  0  0
  1  2  2  0
  1  3  1  0
  3  4  1  0
  4  5  2  3
  5  6  1  0
M  END
>  <name>  (24) 
Car Nac Nd0 Car Car Sul

>  <indices>  (24) 
[0, 1, 2]

>  <dummy>  (24) 
1

>  <tasks>  (24) 
probe_placing close_aromatic_ring close_aromatic_ring

>  <current_task>  (24) 
close_aromatic_ring

>  <prot_clashes>  (24) 
3

>  <NBS phar>  (24) 
0.1

>  <NBS_non-phar>  (24) 
0.5627676963806152

>  <NBS>  (24) 
0.6627676963806152

>  <source_stage>  (24) 
scored

>  <source_iter>  (24) 
2

>  <source_parent_mol>  (24) 
1

>  <source_scenario>  (24) 
0 1

>  <source_rank_in_scored_call>  (24) 
9

>  <source_current_task>  (24) 
close_aromatic_ring

>  <rotatable_bond_torsions>  (24) 
1,0,2,3;0,2,3,4

>  <scenario>  (24) 
0 1

>  <reason_to_skip>  (24) 
some_atom_counter_exceeded

$$$$

     RDKit          3D

  6  5  0  0  0  0  0  0  0  0999 V2000
  -28.3150   -7.8110  -32.1990 C   0  0  0  0  0  0  0  0  0  0  0  0
  -27.4720   -7.0040  -32.9050 N   0  0  0  0  0  0  0  0  0  0  0  0
  -28.4410   -9.1550  -32.5770 N   0  0  0  0  0  0  0  0  0  0  0  0
  -29.3520   -9.6600  -31.6480 C   0  0  0  0  0  0  0  0  0  0  0  0
  -28.8980  -10.8810  -30.9050 C   0  0  0  0  0  0  0  0  0  0  0  0
  -29.6532  -12.0342  -31.0182 C   0  0  0  0  0  0  0  0  0  0  0  0
  1  2  2  0
  1  3  1  0
  3  4  1  0
  4  5  2  3
  5  6  1  0
M  END
>  <name>  (25) 
Car Nac Nd0 Car Car Car

>  <indices>  (25) 
[0, 1, 2]

>  <dummy>  (25) 
1

>  <tasks>  (25) 
probe_placing close_aromatic_ring close_aromatic_ring

>  <current_task>  (25) 
close_aromatic_ring

>  <prot_clashes>  (25) 
3

>  <NBS phar>  (25) 
0.1

>  <NBS_non-phar>  (25) 
0.5627676963806152

>  <NBS>  (25) 
0.6627676963806152

>  <source_stage>  (25) 
scored

>  <source_iter>  (25) 
2

>  <source_parent_mol>  (25) 
1

>  <source_scenario>  (25) 
0 1

>  <source_rank_in_scored_call>  (25) 
9

>  <source_current_task>  (25) 
close_aromatic_ring

>  <rotatable_bond_torsions>  (25) 
1,0,2,3;0,2,3,4

>  <scenario>  (25) 
0 1

>  <reason_to_skip>  (25) 
incorrect arom ring closing

$$$$

     RDKit          3D

  6  5  0  0  0  0  0  0  0  0999 V2000
  -28.3150   -7.8110  -32.1990 C   0  0  0  0  0  0  0  0  0  0  0  0
  -27.4720   -7.0040  -32.9050 N   0  0  0  0  0  0  0  0  0  0  0  0
  -28.4410   -9.1550  -32.5770 N   0  0  0  0  0  0  0  0  0  0  0  0
  -29.3520   -9.6600  -31.6480 C   0  0  0  0  0  0  0  0  0  0  0  0
  -28.8980  -10.8810  -30.9050 C   0  0  0  0  0  0  0  0  0  0  0  0
  -29.3085  -12.2387  -31.4721 C   0  0  0  0  0  0  0  0  0  0  0  0
  1  2  2  0
  1  3  1  0
  3  4  1  0
  4  5  2  3
  5  6  1  0
M  END
>  <name>  (26) 
Car Nac Nd0 Car Car Car

>  <indices>  (26) 
[0, 1, 2]

>  <dummy>  (26) 
1

>  <tasks>  (26) 
probe_placing close_aromatic_ring close_aromatic_ring

>  <current_task>  (26) 
close_aromatic_ring

>  <prot_clashes>  (26) 
3

>  <NBS phar>  (26) 
0.1

>  <NBS_non-phar>  (26) 
0.5627676963806152

>  <NBS>  (26) 
0.6627676963806152

>  <source_stage>  (26) 
scored

>  <source_iter>  (26) 
2

>  <source_parent_mol>  (26) 
1

>  <source_scenario>  (26) 
0 1

>  <source_rank_in_scored_call>  (26) 
9

>  <source_current_task>  (26) 
close_aromatic_ring

>  <rotatable_bond_torsions>  (26) 
1,0,2,3;0,2,3,4

>  <scenario>  (26) 
0 1

>  <reason_to_skip>  (26) 
incorrect arom ring closing

$$$$

     RDKit          3D

  6  5  0  0  0  0  0  0  0  0999 V2000
  -28.3150   -7.8110  -32.1990 C   0  0  0  0  0  0  0  0  0  0  0  0
  -27.4720   -7.0040  -32.9050 N   0  0  0  0  0  0  0  0  0  0  0  0
  -28.4410   -9.1550  -32.5770 N   0  0  0  0  0  0  0  0  0  0  0  0
  -29.3520   -9.6600  -31.6480 C   0  0  0  0  0  0  0  0  0  0  0  0
  -28.8980  -10.8810  -30.9050 C   0  0  0  0  0  0  0  0  0  0  0  0
  -27.7213  -11.5146  -31.0527 C   0  0  0  0  0  0  0  0  0  0  0  0
  1  2  2  0
  1  3  1  0
  3  4  1  0
  4  5  2  3
  5  6  1  0
M  END
>  <name>  (27) 
Car Nac Nd0 Car Car Car

>  <indices>  (27) 
[0, 1, 2]

>  <dummy>  (27) 
1

>  <tasks>  (27) 
probe_placing close_aromatic_ring close_aromatic_ring

>  <current_task>  (27) 
close_aromatic_ring

>  <prot_clashes>  (27) 
3

>  <NBS phar>  (27) 
0.1

>  <NBS_non-phar>  (27) 
0.5627676963806152

>  <NBS>  (27) 
0.6627676963806152

>  <source_stage>  (27) 
scored

>  <source_iter>  (27) 
2

>  <source_parent_mol>  (27) 
1

>  <source_scenario>  (27) 
0 1

>  <source_rank_in_scored_call>  (27) 
9

>  <source_current_task>  (27) 
close_aromatic_ring

>  <rotatable_bond_torsions>  (27) 
1,0,2,3;0,2,3,4

>  <scenario>  (27) 
0 1

>  <reason_to_skip>  (27) 
subgraph mismatch

$$$$

     RDKit          3D

  6  5  0  0  0  0  0  0  0  0999 V2000
  -28.3150   -7.8110  -32.1990 C   0  0  0  0  0  0  0  0  0  0  0  0
  -27.4720   -7.0040  -32.9050 N   0  0  0  0  0  0  0  0  0  0  0  0
  -28.4410   -9.1550  -32.5770 N   0  0  0  0  0  0  0  0  0  0  0  0
  -29.3520   -9.6600  -31.6480 C   0  0  0  0  0  0  0  0  0  0  0  0
  -28.8980  -10.8810  -30.9050 C   0  0  0  0  0  0  0  0  0  0  0  0
  -27.7626  -11.5406  -31.0134 N   0  0  0  0  0  0  0  0  0  0  0  0
  1  2  2  0
  1  3  1  0
  3  4  1  0
  4  5  2  3
  5  6  1  0
M  END
>  <name>  (28) 
Car Nac Nd0 Car Car Nac

>  <indices>  (28) 
[0, 1, 2]

>  <dummy>  (28) 
1

>  <tasks>  (28) 
probe_placing close_aromatic_ring close_aromatic_ring

>  <current_task>  (28) 
close_aromatic_ring

>  <prot_clashes>  (28) 
3

>  <NBS phar>  (28) 
0.1

>  <NBS_non-phar>  (28) 
0.5627676963806152

>  <NBS>  (28) 
0.6627676963806152

>  <source_stage>  (28) 
scored

>  <source_iter>  (28) 
2

>  <source_parent_mol>  (28) 
1

>  <source_scenario>  (28) 
0 1

>  <source_rank_in_scored_call>  (28) 
9

>  <source_current_task>  (28) 
close_aromatic_ring

>  <rotatable_bond_torsions>  (28) 
1,0,2,3;0,2,3,4

>  <scenario>  (28) 
0 1

>  <reason_to_skip>  (28) 
subgraph mismatch

$$$$

     RDKit          3D

  5  4  0  0  0  0  0  0  0  0999 V2000
  -27.8640   -7.4760  -31.1990 C   0  0  0  0  0  0  0  0  0  0  0  0
  -27.5380   -6.7190  -32.2850 N   0  0  0  0  0  0  0  0  0  0  0  0
  -27.6840   -8.8650  -31.2620 N   0  0  0  0  0  0  0  0  0  0  0  0
  -27.8714   -9.7090  -32.3537 C   0  0  0  0  0  0  0  0  0  0  0  0
    0.0000    0.0000    0.0000 S   0  0  0  0  0  0  0  0  0  0  0  0
  1  2  2  0
  1  3  1  0
  3  4  1  0
  4  5  1  0
M  END
>  <name>  (1) 
Car Nac Nd0 Car Sul

>  <indices>  (1) 
[0, 1, 2]

>  <dummy>  (1) 
1

>  <tasks>  (1) 
probe_placing close_aromatic_ring

>  <current_task>  (1) 
close_aromatic_ring

>  <prot_clashes>  (1) 
3

>  <NBS phar>  (1) 
0.2

>  <NBS_non-phar>  (1) 
0.6889480352401733

>  <NBS>  (1) 
0.8889480352401733

>  <source_stage>  (1) 
scored

>  <source_iter>  (1) 
1

>  <source_parent_mol>  (1) 
0

>  <source_scenario>  (1) 
0

>  <source_rank_in_scored_call>  (1) 
6

>  <source_current_task>  (1) 
close_aromatic_ring

>  <rotatable_bond_torsions>  (1) 
1,0,2,3

>  <scenario>  (1) 
0

>  <reason_to_skip>  (1) 
some_atom_counter_exceeded

$$$$

     RDKit          3D

  5  4  0  0  0  0  0  0  0  0999 V2000
  -27.8640   -7.4760  -31.1990 C   0  0  0  0  0  0  0  0  0  0  0  0
  -27.5380   -6.7190  -32.2850 N   0  0  0  0  0  0  0  0  0  0  0  0
  -27.6840   -8.8650  -31.2620 N   0  0  0  0  0  0  0  0  0  0  0  0
  -27.8714   -9.7090  -32.3537 C   0  0  0  0  0  0  0  0  0  0  0  0
  -27.7724  -10.8456  -32.6214 N   0  0  0  0  0  0  0  0  0  0  0  0
  1  2  2  0
  1  3  1  0
  3  4  1  0
  4  5  1  0
M  END
>  <name>  (2) 
Car Nac Nd0 Car Nac

>  <indices>  (2) 
[0, 1, 2]

>  <dummy>  (2) 
1

>  <tasks>  (2) 
probe_placing close_aromatic_ring

>  <current_task>  (2) 
close_aromatic_ring

>  <prot_clashes>  (2) 
3

>  <NBS phar>  (2) 
0.2

>  <NBS_non-phar>  (2) 
0.6889480352401733

>  <NBS>  (2) 
0.8889480352401733

>  <source_stage>  (2) 
scored

>  <source_iter>  (2) 
1

>  <source_parent_mol>  (2) 
0

>  <source_scenario>  (2) 
0

>  <source_rank_in_scored_call>  (2) 
6

>  <source_current_task>  (2) 
close_aromatic_ring

>  <rotatable_bond_torsions>  (2) 
1,0,2,3

>  <scenario>  (2) 
0

>  <reason_to_skip>  (2) 
bad angles

$$$$

     RDKit          3D

  5  4  0  0  0  0  0  0  0  0999 V2000
  -27.8640   -7.4760  -31.1990 C   0  0  0  0  0  0  0  0  0  0  0  0
  -27.5380   -6.7190  -32.2850 N   0  0  0  0  0  0  0  0  0  0  0  0
  -27.6840   -8.8650  -31.2620 N   0  0  0  0  0  0  0  0  0  0  0  0
  -27.8714   -9.7090  -32.3537 C   0  0  0  0  0  0  0  0  0  0  0  0
    0.0000    0.0000    0.0000 S   0  0  0  0  0  0  0  0  0  0  0  0
  1  2  2  0
  1  3  1  0
  3  4  1  0
  4  5  1  0
M  END
>  <name>  (3) 
Car Nac Nd0 Car Sul

>  <indices>  (3) 
[0, 1, 2]

>  <dummy>  (3) 
1

>  <tasks>  (3) 
probe_placing close_aromatic_ring

>  <current_task>  (3) 
close_aromatic_ring

>  <prot_clashes>  (3) 
3

>  <NBS phar>  (3) 
0.2

>  <NBS_non-phar>  (3) 
0.6889480352401733

>  <NBS>  (3) 
0.8889480352401733

>  <source_stage>  (3) 
scored

>  <source_iter>  (3) 
1

>  <source_parent_mol>  (3) 
0

>  <source_scenario>  (3) 
0

>  <source_rank_in_scored_call>  (3) 
6

>  <source_current_task>  (3) 
close_aromatic_ring

>  <rotatable_bond_torsions>  (3) 
1,0,2,3

>  <scenario>  (3) 
0

>  <reason_to_skip>  (3) 
some_atom_counter_exceeded

$$$$

     RDKit          3D

  5  4  0  0  0  0  0  0  0  0999 V2000
  -27.8640   -7.4760  -31.1990 C   0  0  0  0  0  0  0  0  0  0  0  0
  -27.5380   -6.7190  -32.2850 N   0  0  0  0  0  0  0  0  0  0  0  0
  -27.6840   -8.8650  -31.2620 N   0  0  0  0  0  0  0  0  0  0  0  0
  -27.8714   -9.7090  -32.3537 C   0  0  0  0  0  0  0  0  0  0  0  0
  -26.8891  -10.1163  -33.0791 N   0  0  0  0  0  0  0  0  0  0  0  0
  1  2  2  0
  1  3  1  0
  3  4  1  0
  4  5  2  0
M  END
>  <name>  (4) 
Car Nac Nd0 Car Nac

>  <indices>  (4) 
[0, 1, 2]

>  <dummy>  (4) 
1

>  <tasks>  (4) 
probe_placing close_aromatic_ring

>  <current_task>  (4) 
close_aromatic_ring

>  <prot_clashes>  (4) 
3

>  <NBS phar>  (4) 
0.2

>  <NBS_non-phar>  (4) 
0.6889480352401733

>  <NBS>  (4) 
0.8889480352401733

>  <source_stage>  (4) 
scored

>  <source_iter>  (4) 
1

>  <source_parent_mol>  (4) 
0

>  <source_scenario>  (4) 
0

>  <source_rank_in_scored_call>  (4) 
6

>  <source_current_task>  (4) 
close_aromatic_ring

>  <rotatable_bond_torsions>  (4) 
1,0,2,3

>  <scenario>  (4) 
0

>  <reason_to_skip>  (4) 
bad dihedral

$$$$

     RDKit          3D

  5  4  0  0  0  0  0  0  0  0999 V2000
  -27.8640   -7.4760  -31.1990 C   0  0  0  0  0  0  0  0  0  0  0  0
  -27.5380   -6.7190  -32.2850 N   0  0  0  0  0  0  0  0  0  0  0  0
  -27.6840   -8.8650  -31.2620 N   0  0  0  0  0  0  0  0  0  0  0  0
  -27.8714   -9.7090  -32.3537 C   0  0  0  0  0  0  0  0  0  0  0  0
    0.0000    0.0000    0.0000 O   0  0  0  0  0  0  0  0  0  0  0  0
  1  2  2  0
  1  3  1  0
  3  4  1  0
  4  5  1  0
M  END
>  <name>  (5) 
Car Nac Nd0 Car O_a

>  <indices>  (5) 
[0, 1, 2]

>  <dummy>  (5) 
1

>  <tasks>  (5) 
probe_placing close_aromatic_ring

>  <current_task>  (5) 
close_aromatic_ring

>  <prot_clashes>  (5) 
3

>  <NBS phar>  (5) 
0.2

>  <NBS_non-phar>  (5) 
0.6889480352401733

>  <NBS>  (5) 
0.8889480352401733

>  <source_stage>  (5) 
scored

>  <source_iter>  (5) 
1

>  <source_parent_mol>  (5) 
0

>  <source_scenario>  (5) 
0

>  <source_rank_in_scored_call>  (5) 
6

>  <source_current_task>  (5) 
close_aromatic_ring

>  <rotatable_bond_torsions>  (5) 
1,0,2,3

>  <scenario>  (5) 
0

>  <reason_to_skip>  (5) 
some_atom_counter_exceeded

$$$$

     RDKit          3D

  5  4  0  0  0  0  0  0  0  0999 V2000
  -27.8640   -7.4760  -31.1990 C   0  0  0  0  0  0  0  0  0  0  0  0
  -27.5380   -6.7190  -32.2850 N   0  0  0  0  0  0  0  0  0  0  0  0
  -27.6840   -8.8650  -31.2620 N   0  0  0  0  0  0  0  0  0  0  0  0
  -27.8714   -9.7090  -32.3537 C   0  0  0  0  0  0  0  0  0  0  0  0
    0.0000    0.0000    0.0000 S   0  0  0  0  0  0  0  0  0  0  0  0
  1  2  2  0
  1  3  1  0
  3  4  1  0
  4  5  1  0
M  END
>  <name>  (6) 
Car Nac Nd0 Car Sul

>  <indices>  (6) 
[0, 1, 2]

>  <dummy>  (6) 
1

>  <tasks>  (6) 
probe_placing close_aromatic_ring

>  <current_task>  (6) 
close_aromatic_ring

>  <prot_clashes>  (6) 
3

>  <NBS phar>  (6) 
0.2

>  <NBS_non-phar>  (6) 
0.6889480352401733

>  <NBS>  (6) 
0.8889480352401733

>  <source_stage>  (6) 
scored

>  <source_iter>  (6) 
1

>  <source_parent_mol>  (6) 
0

>  <source_scenario>  (6) 
0

>  <source_rank_in_scored_call>  (6) 
6

>  <source_current_task>  (6) 
close_aromatic_ring

>  <rotatable_bond_torsions>  (6) 
1,0,2,3

>  <scenario>  (6) 
0

>  <reason_to_skip>  (6) 
some_atom_counter_exceeded

$$$$

     RDKit          3D

  5  4  0  0  0  0  0  0  0  0999 V2000
  -27.8640   -7.4760  -31.1990 C   0  0  0  0  0  0  0  0  0  0  0  0
  -27.5380   -6.7190  -32.2850 N   0  0  0  0  0  0  0  0  0  0  0  0
  -27.6840   -8.8650  -31.2620 N   0  0  0  0  0  0  0  0  0  0  0  0
  -27.8714   -9.7090  -32.3537 C   0  0  0  0  0  0  0  0  0  0  0  0
  -28.3028   -8.6541  -33.3108 C   0  0  0  0  0  0  0  0  0  0  0  0
  1  2  2  0
  1  3  1  0
  3  4  1  0
  4  5  2  0
M  END
>  <name>  (7) 
Car Nac Nd0 Car Car

>  <indices>  (7) 
[0, 1, 2]

>  <dummy>  (7) 
1

>  <tasks>  (7) 
probe_placing close_aromatic_ring

>  <current_task>  (7) 
close_aromatic_ring

>  <prot_clashes>  (7) 
3

>  <NBS phar>  (7) 
0.2

>  <NBS_non-phar>  (7) 
0.6889480352401733

>  <NBS>  (7) 
0.8889480352401733

>  <source_stage>  (7) 
scored

>  <source_iter>  (7) 
1

>  <source_parent_mol>  (7) 
0

>  <source_scenario>  (7) 
0

>  <source_rank_in_scored_call>  (7) 
6

>  <source_current_task>  (7) 
close_aromatic_ring

>  <rotatable_bond_torsions>  (7) 
1,0,2,3

>  <scenario>  (7) 
0

>  <reason_to_skip>  (7) 
bad angles

$$$$

     RDKit          3D

  5  4  0  0  0  0  0  0  0  0999 V2000
  -27.8640   -7.4760  -31.1990 C   0  0  0  0  0  0  0  0  0  0  0  0
  -27.5380   -6.7190  -32.2850 N   0  0  0  0  0  0  0  0  0  0  0  0
  -27.6840   -8.8650  -31.2620 N   0  0  0  0  0  0  0  0  0  0  0  0
  -27.8714   -9.7090  -32.3537 C   0  0  0  0  0  0  0  0  0  0  0  0
  -27.8755  -10.9739  -32.2701 N   0  0  0  0  0  0  0  0  0  0  0  0
  1  2  2  0
  1  3  1  0
  3  4  1  0
  4  5  1  0
M  END
>  <name>  (8) 
Car Nac Nd0 Car Nd0

>  <indices>  (8) 
[0, 1, 2]

>  <dummy>  (8) 
1

>  <tasks>  (8) 
probe_placing close_aromatic_ring

>  <current_task>  (8) 
close_aromatic_ring

>  <prot_clashes>  (8) 
3

>  <NBS phar>  (8) 
0.2

>  <NBS_non-phar>  (8) 
0.6889480352401733

>  <NBS>  (8) 
0.8889480352401733

>  <source_stage>  (8) 
scored

>  <source_iter>  (8) 
1

>  <source_parent_mol>  (8) 
0

>  <source_scenario>  (8) 
0

>  <source_rank_in_scored_call>  (8) 
6

>  <source_current_task>  (8) 
close_aromatic_ring

>  <rotatable_bond_torsions>  (8) 
1,0,2,3

>  <scenario>  (8) 
0

>  <reason_to_skip>  (8) 
subgraph mismatch

$$$$

     RDKit          3D

  5  4  0  0  0  0  0  0  0  0999 V2000
  -27.8640   -7.4760  -31.1990 C   0  0  0  0  0  0  0  0  0  0  0  0
  -27.5380   -6.7190  -32.2850 N   0  0  0  0  0  0  0  0  0  0  0  0
  -27.6840   -8.8650  -31.2620 N   0  0  0  0  0  0  0  0  0  0  0  0
  -27.8714   -9.7090  -32.3537 C   0  0  0  0  0  0  0  0  0  0  0  0
  -28.2690   -8.9709  -33.4395 N   0  0  0  0  0  0  0  0  0  0  0  0
  1  2  2  0
  1  3  1  0
  3  4  1  0
  4  5  1  0
M  END
>  <name>  (9) 
Car Nac Nd0 Car Nd0

>  <indices>  (9) 
[0, 1, 2]

>  <dummy>  (9) 
1

>  <tasks>  (9) 
probe_placing close_aromatic_ring

>  <current_task>  (9) 
close_aromatic_ring

>  <prot_clashes>  (9) 
3

>  <NBS phar>  (9) 
0.2

>  <NBS_non-phar>  (9) 
0.6889480352401733

>  <NBS>  (9) 
0.8889480352401733

>  <source_stage>  (9) 
scored

>  <source_iter>  (9) 
1

>  <source_parent_mol>  (9) 
0

>  <source_scenario>  (9) 
0

>  <source_rank_in_scored_call>  (9) 
6

>  <source_current_task>  (9) 
close_aromatic_ring

>  <rotatable_bond_torsions>  (9) 
1,0,2,3

>  <scenario>  (9) 
0

>  <reason_to_skip>  (9) 
subgraph mismatch

$$$$

     RDKit          3D

  5  4  0  0  0  0  0  0  0  0999 V2000
  -27.8640   -7.4760  -31.1990 C   0  0  0  0  0  0  0  0  0  0  0  0
  -27.5380   -6.7190  -32.2850 N   0  0  0  0  0  0  0  0  0  0  0  0
  -27.6840   -8.8650  -31.2620 N   0  0  0  0  0  0  0  0  0  0  0  0
  -27.8714   -9.7090  -32.3537 C   0  0  0  0  0  0  0  0  0  0  0  0
  -27.7697  -10.9739  -32.2852 N   0  0  0  0  0  0  0  0  0  0  0  0
  1  2  2  0
  1  3  1  0
  3  4  1  0
  4  5  2  0
M  END
>  <name>  (10) 
Car Nac Nd0 Car Nac

>  <indices>  (10) 
[0, 1, 2]

>  <dummy>  (10) 
1

>  <tasks>  (10) 
probe_placing close_aromatic_ring

>  <current_task>  (10) 
close_aromatic_ring

>  <prot_clashes>  (10) 
3

>  <NBS phar>  (10) 
0.2

>  <NBS_non-phar>  (10) 
0.6889480352401733

>  <NBS>  (10) 
0.8889480352401733

>  <source_stage>  (10) 
scored

>  <source_iter>  (10) 
1

>  <source_parent_mol>  (10) 
0

>  <source_scenario>  (10) 
0

>  <source_rank_in_scored_call>  (10) 
6

>  <source_current_task>  (10) 
close_aromatic_ring

>  <rotatable_bond_torsions>  (10) 
1,0,2,3

>  <scenario>  (10) 
0

>  <reason_to_skip>  (10) 
subgraph mismatch

$$$$

     RDKit          3D

  5  4  0  0  0  0  0  0  0  0999 V2000
  -27.8640   -7.4760  -31.1990 C   0  0  0  0  0  0  0  0  0  0  0  0
  -27.5380   -6.7190  -32.2850 N   0  0  0  0  0  0  0  0  0  0  0  0
  -27.6840   -8.8650  -31.2620 N   0  0  0  0  0  0  0  0  0  0  0  0
  -27.8714   -9.7090  -32.3537 C   0  0  0  0  0  0  0  0  0  0  0  0
  -28.8438   -9.4730  -33.2287 N   0  0  0  0  0  0  0  0  0  0  0  0
  1  2  2  0
  1  3  1  0
  3  4  1  0
  4  5  2  0
M  END
>  <name>  (11) 
Car Nac Nd0 Car Nac

>  <indices>  (11) 
[0, 1, 2]

>  <dummy>  (11) 
1

>  <tasks>  (11) 
probe_placing close_aromatic_ring

>  <current_task>  (11) 
close_aromatic_ring

>  <prot_clashes>  (11) 
3

>  <NBS phar>  (11) 
0.2

>  <NBS_non-phar>  (11) 
0.6889480352401733

>  <NBS>  (11) 
0.8889480352401733

>  <source_stage>  (11) 
scored

>  <source_iter>  (11) 
1

>  <source_parent_mol>  (11) 
0

>  <source_scenario>  (11) 
0

>  <source_rank_in_scored_call>  (11) 
6

>  <source_current_task>  (11) 
close_aromatic_ring

>  <rotatable_bond_torsions>  (11) 
1,0,2,3

>  <scenario>  (11) 
0

>  <reason_to_skip>  (11) 
subgraph mismatch

$$$$

     RDKit          3D

  5  4  0  0  0  0  0  0  0  0999 V2000
  -27.8640   -7.4760  -31.1990 C   0  0  0  0  0  0  0  0  0  0  0  0
  -27.5380   -6.7190  -32.2850 N   0  0  0  0  0  0  0  0  0  0  0  0
  -27.6840   -8.8650  -31.2620 N   0  0  0  0  0  0  0  0  0  0  0  0
  -27.8714   -9.7090  -32.3537 C   0  0  0  0  0  0  0  0  0  0  0  0
  -28.4241   -9.1293  -33.4322 N   0  0  0  0  0  0  0  0  0  0  0  0
  1  2  2  0
  1  3  1  0
  3  4  1  0
  4  5  1  0
M  END
>  <name>  (12) 
Car Nac Nd0 Car Nac

>  <indices>  (12) 
[0, 1, 2]

>  <dummy>  (12) 
1

>  <tasks>  (12) 
probe_placing close_aromatic_ring

>  <current_task>  (12) 
close_aromatic_ring

>  <prot_clashes>  (12) 
3

>  <NBS phar>  (12) 
0.2

>  <NBS_non-phar>  (12) 
0.6889480352401733

>  <NBS>  (12) 
0.8889480352401733

>  <source_stage>  (12) 
scored

>  <source_iter>  (12) 
1

>  <source_parent_mol>  (12) 
0

>  <source_scenario>  (12) 
0

>  <source_rank_in_scored_call>  (12) 
6

>  <source_current_task>  (12) 
close_aromatic_ring

>  <rotatable_bond_torsions>  (12) 
1,0,2,3

>  <scenario>  (12) 
0

>  <reason_to_skip>  (12) 
subgraph mismatch

$$$$

     RDKit          3D

  5  4  0  0  0  0  0  0  0  0999 V2000
  -27.8640   -7.4760  -31.1990 C   0  0  0  0  0  0  0  0  0  0  0  0
  -27.5380   -6.7190  -32.2850 N   0  0  0  0  0  0  0  0  0  0  0  0
  -27.6840   -8.8650  -31.2620 N   0  0  0  0  0  0  0  0  0  0  0  0
  -27.8714   -9.7090  -32.3537 C   0  0  0  0  0  0  0  0  0  0  0  0
  -28.8814  -10.4995  -32.3199 N   0  0  0  0  0  0  0  0  0  0  0  0
  1  2  2  0
  1  3  1  0
  3  4  1  0
  4  5  1  0
M  END
>  <name>  (13) 
Car Nac Nd0 Car Nac

>  <indices>  (13) 
[0, 1, 2]

>  <dummy>  (13) 
1

>  <tasks>  (13) 
probe_placing close_aromatic_ring

>  <current_task>  (13) 
close_aromatic_ring

>  <prot_clashes>  (13) 
3

>  <NBS phar>  (13) 
0.2

>  <NBS_non-phar>  (13) 
0.6889480352401733

>  <NBS>  (13) 
0.8889480352401733

>  <source_stage>  (13) 
scored

>  <source_iter>  (13) 
1

>  <source_parent_mol>  (13) 
0

>  <source_scenario>  (13) 
0

>  <source_rank_in_scored_call>  (13) 
6

>  <source_current_task>  (13) 
close_aromatic_ring

>  <rotatable_bond_torsions>  (13) 
1,0,2,3

>  <scenario>  (13) 
0

>  <reason_to_skip>  (13) 
subgraph mismatch

$$$$

     RDKit          3D

  5  4  0  0  0  0  0  0  0  0999 V2000
  -27.8640   -7.4760  -31.1990 C   0  0  0  0  0  0  0  0  0  0  0  0
  -27.5380   -6.7190  -32.2850 N   0  0  0  0  0  0  0  0  0  0  0  0
  -27.6840   -8.8650  -31.2620 N   0  0  0  0  0  0  0  0  0  0  0  0
  -27.8714   -9.7090  -32.3537 C   0  0  0  0  0  0  0  0  0  0  0  0
  -26.9689   -9.8307  -33.3988 N   0  0  0  0  0  0  0  0  0  0  0  0
  1  2  2  0
  1  3  1  0
  3  4  1  0
  4  5  1  0
M  END
>  <name>  (14) 
Car Nac Nd0 Car Nac

>  <indices>  (14) 
[0, 1, 2]

>  <dummy>  (14) 
1

>  <tasks>  (14) 
probe_placing close_aromatic_ring

>  <current_task>  (14) 
close_aromatic_ring

>  <prot_clashes>  (14) 
3

>  <NBS phar>  (14) 
0.2

>  <NBS_non-phar>  (14) 
0.6889480352401733

>  <NBS>  (14) 
0.8889480352401733

>  <source_stage>  (14) 
scored

>  <source_iter>  (14) 
1

>  <source_parent_mol>  (14) 
0

>  <source_scenario>  (14) 
0

>  <source_rank_in_scored_call>  (14) 
6

>  <source_current_task>  (14) 
close_aromatic_ring

>  <rotatable_bond_torsions>  (14) 
1,0,2,3

>  <scenario>  (14) 
0

>  <reason_to_skip>  (14) 
subgraph mismatch

$$$$

     RDKit          3D

  5  4  0  0  0  0  0  0  0  0999 V2000
  -26.2530   -7.8610  -31.5570 C   0  0  0  0  0  0  0  0  0  0  0  0
  -25.2350   -8.6820  -31.1720 N   0  0  0  0  0  0  0  0  0  0  0  0
  -26.9940   -7.1920  -30.5720 N   0  0  0  0  0  0  0  0  0  0  0  0
  -27.3650   -7.6530  -29.3120 C   0  0  0  0  0  0  0  0  0  0  0  0
  -26.9510   -8.9630  -28.9890 C   0  0  0  0  0  0  0  0  0  0  0  0
  1  2  2  0
  1  3  1  0
  3  4  1  0
  4  5  2  0
M  END
>  <name>  (15) 
Car Nac Nd0 Car Car

>  <indices>  (15) 
[0, 1, 2]

>  <dummy>  (15) 
1

>  <tasks>  (15) 
probe_placing close_aromatic_ring

>  <current_task>  (15) 
close_aromatic_ring

>  <prot_clashes>  (15) 
3

>  <NBS phar>  (15) 
0.2

>  <NBS_non-phar>  (15) 
0.6889480352401733

>  <NBS>  (15) 
0.8889480352401733

>  <source_stage>  (15) 
scored

>  <source_iter>  (15) 
1

>  <source_parent_mol>  (15) 
0

>  <source_scenario>  (15) 
0

>  <source_rank_in_scored_call>  (15) 
6

>  <source_current_task>  (15) 
close_aromatic_ring

>  <rotatable_bond_torsions>  (15) 
1,0,2,3

>  <scenario>  (15) 
0

>  <reason_to_skip>  (15) 
too many clashes (11 with max 8)

$$$$

     RDKit          3D

  5  4  0  0  0  0  0  0  0  0999 V2000
  -28.6370   -8.6730  -32.1340 C   0  0  0  0  0  0  0  0  0  0  0  0
  -28.4760   -9.9760  -32.4990 N   0  0  0  0  0  0  0  0  0  0  0  0
  -28.8660   -8.3710  -30.7840 N   0  0  0  0  0  0  0  0  0  0  0  0
  -29.6040   -9.0960  -29.8520 C   0  0  0  0  0  0  0  0  0  0  0  0
  -28.9970   -9.8220  -28.8460 C   0  0  0  0  0  0  0  0  0  0  0  0
  1  2  2  0
  1  3  1  0
  3  4  1  0
  4  5  2  0
M  END
>  <name>  (16) 
Car Nac Nd0 Car Car

>  <indices>  (16) 
[0, 1, 2]

>  <dummy>  (16) 
1

>  <tasks>  (16) 
probe_placing close_aromatic_ring

>  <current_task>  (16) 
close_aromatic_ring

>  <prot_clashes>  (16) 
3

>  <NBS phar>  (16) 
0.2

>  <NBS_non-phar>  (16) 
0.6889480352401733

>  <NBS>  (16) 
0.8889480352401733

>  <source_stage>  (16) 
scored

>  <source_iter>  (16) 
1

>  <source_parent_mol>  (16) 
0

>  <source_scenario>  (16) 
0

>  <source_rank_in_scored_call>  (16) 
6

>  <source_current_task>  (16) 
close_aromatic_ring

>  <rotatable_bond_torsions>  (16) 
1,0,2,3

>  <scenario>  (16) 
0

>  <reason_to_skip>  (16) 
missing crucial interaction

$$$$

     RDKit          3D

  5  4  0  0  0  0  0  0  0  0999 V2000
  -27.1680   -8.2230  -30.7630 C   0  0  0  0  0  0  0  0  0  0  0  0
  -26.5200   -9.3010  -31.2900 N   0  0  0  0  0  0  0  0  0  0  0  0
  -27.1400   -8.0280  -29.3750 N   0  0  0  0  0  0  0  0  0  0  0  0
  -27.1720   -8.9900  -28.3690 C   0  0  0  0  0  0  0  0  0  0  0  0
  -27.2630  -10.3920  -28.9000 C   0  0  0  0  0  0  0  0  0  0  0  0
  1  2  2  0
  1  3  1  0
  3  4  1  0
  4  5  1  0
M  END
>  <name>  (17) 
Car Nac Nd0 Car Car

>  <indices>  (17) 
[0, 1, 2]

>  <dummy>  (17) 
1

>  <tasks>  (17) 
probe_placing close_aromatic_ring

>  <current_task>  (17) 
close_aromatic_ring

>  <prot_clashes>  (17) 
3

>  <NBS phar>  (17) 
0.2

>  <NBS_non-phar>  (17) 
0.6889480352401733

>  <NBS>  (17) 
0.8889480352401733

>  <source_stage>  (17) 
scored

>  <source_iter>  (17) 
1

>  <source_parent_mol>  (17) 
0

>  <source_scenario>  (17) 
0

>  <source_rank_in_scored_call>  (17) 
6

>  <source_current_task>  (17) 
close_aromatic_ring

>  <rotatable_bond_torsions>  (17) 
1,0,2,3

>  <scenario>  (17) 
0

>  <reason_to_skip>  (17) 
missing crucial interaction

$$$$

     RDKit          3D

  6  5  0  0  0  0  0  0  0  0999 V2000
  -27.3780   -7.8060  -31.6290 C   0  0  0  0  0  0  0  0  0  0  0  0
  -27.6710   -7.3410  -32.8760 N   0  0  0  0  0  0  0  0  0  0  0  0
  -27.3760   -9.1900  -31.4040 N   0  0  0  0  0  0  0  0  0  0  0  0
  -28.2180  -10.1530  -31.9540 C   0  0  0  0  0  0  0  0  0  0  0  0
  -29.1290  -10.7100  -31.1410 C   0  0  0  0  0  0  0  0  0  0  0  0
  -30.1740  -11.7397  -31.6785 C   0  0  0  0  0  0  0  0  0  0  0  0
  1  2  2  0
  1  3  1  0
  3  4  1  0
  4  5  1  0
  5  6  1  0
M  END
>  <name>  (1) 
Car Nac Nd0 Car Car Car

>  <indices>  (1) 
[0, 1, 2]

>  <dummy>  (1) 
1

>  <tasks>  (1) 
probe_placing close_aromatic_ring close_aromatic_ring

>  <current_task>  (1) 
close_aromatic_ring

>  <prot_clashes>  (1) 
3

>  <NBS phar>  (1) 
0.2

>  <NBS_non-phar>  (1) 
0.7743264198303222

>  <NBS>  (1) 
0.9743264198303223

>  <source_stage>  (1) 
scored

>  <source_iter>  (1) 
2

>  <source_parent_mol>  (1) 
2

>  <source_scenario>  (1) 
0 2

>  <source_rank_in_scored_call>  (1) 
0

>  <source_current_task>  (1) 
close_aromatic_ring

>  <rotatable_bond_torsions>  (1) 
1,0,2,3;0,2,3,4

>  <scenario>  (1) 
0 2

>  <reason_to_skip>  (1) 
incorrect arom ring closing

$$$$

     RDKit          3D

  6  5  0  0  0  0  0  0  0  0999 V2000
  -27.3780   -7.8060  -31.6290 C   0  0  0  0  0  0  0  0  0  0  0  0
  -27.6710   -7.3410  -32.8760 N   0  0  0  0  0  0  0  0  0  0  0  0
  -27.3760   -9.1900  -31.4040 N   0  0  0  0  0  0  0  0  0  0  0  0
  -28.2180  -10.1530  -31.9540 C   0  0  0  0  0  0  0  0  0  0  0  0
  -29.1290  -10.7100  -31.1410 C   0  0  0  0  0  0  0  0  0  0  0  0
  -30.0585  -11.8731  -31.6775 C   0  0  0  0  0  0  0  0  0  0  0  0
  1  2  2  0
  1  3  1  0
  3  4  1  0
  4  5  1  0
  5  6  2  0
M  END
>  <name>  (2) 
Car Nac Nd0 Car Car Car

>  <indices>  (2) 
[0, 1, 2]

>  <dummy>  (2) 
1

>  <tasks>  (2) 
probe_placing close_aromatic_ring close_aromatic_ring

>  <current_task>  (2) 
close_aromatic_ring

>  <prot_clashes>  (2) 
3

>  <NBS phar>  (2) 
0.2

>  <NBS_non-phar>  (2) 
0.7743264198303222

>  <NBS>  (2) 
0.9743264198303223

>  <source_stage>  (2) 
scored

>  <source_iter>  (2) 
2

>  <source_parent_mol>  (2) 
2

>  <source_scenario>  (2) 
0 2

>  <source_rank_in_scored_call>  (2) 
0

>  <source_current_task>  (2) 
close_aromatic_ring

>  <rotatable_bond_torsions>  (2) 
1,0,2,3;0,2,3,4

>  <scenario>  (2) 
0 2

>  <reason_to_skip>  (2) 
incorrect arom ring closing

$$$$

     RDKit          3D

  6  5  0  0  0  0  0  0  0  0999 V2000
  -27.3780   -7.8060  -31.6290 C   0  0  0  0  0  0  0  0  0  0  0  0
  -27.6710   -7.3410  -32.8760 N   0  0  0  0  0  0  0  0  0  0  0  0
  -27.3760   -9.1900  -31.4040 N   0  0  0  0  0  0  0  0  0  0  0  0
  -28.2180  -10.1530  -31.9540 C   0  0  0  0  0  0  0  0  0  0  0  0
  -29.1290  -10.7100  -31.1410 C   0  0  0  0  0  0  0  0  0  0  0  0
  -29.5487  -10.6341  -29.8138 N   0  0  0  0  0  0  0  0  0  0  0  0
  1  2  2  0
  1  3  1  0
  3  4  1  0
  4  5  1  0
  5  6  1  0
M  END
>  <name>  (3) 
Car Nac Nd0 Car Car Nac

>  <indices>  (3) 
[0, 1, 2]

>  <dummy>  (3) 
1

>  <tasks>  (3) 
probe_placing close_aromatic_ring close_aromatic_ring

>  <current_task>  (3) 
close_aromatic_ring

>  <prot_clashes>  (3) 
3

>  <NBS phar>  (3) 
0.2

>  <NBS_non-phar>  (3) 
0.7743264198303222

>  <NBS>  (3) 
0.9743264198303223

>  <source_stage>  (3) 
scored

>  <source_iter>  (3) 
2

>  <source_parent_mol>  (3) 
2

>  <source_scenario>  (3) 
0 2

>  <source_rank_in_scored_call>  (3) 
0

>  <source_current_task>  (3) 
close_aromatic_ring

>  <rotatable_bond_torsions>  (3) 
1,0,2,3;0,2,3,4

>  <scenario>  (3) 
0 2

>  <reason_to_skip>  (3) 
bad angles

$$$$

     RDKit          3D

  6  5  0  0  0  0  0  0  0  0999 V2000
  -27.3780   -7.8060  -31.6290 C   0  0  0  0  0  0  0  0  0  0  0  0
  -27.6710   -7.3410  -32.8760 N   0  0  0  0  0  0  0  0  0  0  0  0
  -27.3760   -9.1900  -31.4040 N   0  0  0  0  0  0  0  0  0  0  0  0
  -28.2180  -10.1530  -31.9540 C   0  0  0  0  0  0  0  0  0  0  0  0
  -29.1290  -10.7100  -31.1410 C   0  0  0  0  0  0  0  0  0  0  0  0
  -29.8389  -11.6060  -31.9997 N   0  0  0  0  0  0  0  0  0  0  0  0
  1  2  2  0
  1  3  1  0
  3  4  1  0
  4  5  1  0
  5  6  1  0
M  END
>  <name>  (4) 
Car Nac Nd0 Car Car Nac

>  <indices>  (4) 
[0, 1, 2]

>  <dummy>  (4) 
1

>  <tasks>  (4) 
probe_placing close_aromatic_ring close_aromatic_ring

>  <current_task>  (4) 
close_aromatic_ring

>  <prot_clashes>  (4) 
3

>  <NBS phar>  (4) 
0.2

>  <NBS_non-phar>  (4) 
0.7743264198303222

>  <NBS>  (4) 
0.9743264198303223

>  <source_stage>  (4) 
scored

>  <source_iter>  (4) 
2

>  <source_parent_mol>  (4) 
2

>  <source_scenario>  (4) 
0 2

>  <source_rank_in_scored_call>  (4) 
0

>  <source_current_task>  (4) 
close_aromatic_ring

>  <rotatable_bond_torsions>  (4) 
1,0,2,3;0,2,3,4

>  <scenario>  (4) 
0 2

>  <reason_to_skip>  (4) 
incorrect arom ring closing

$$$$

     RDKit          3D

  6  5  0  0  0  0  0  0  0  0999 V2000
  -27.3780   -7.8060  -31.6290 C   0  0  0  0  0  0  0  0  0  0  0  0
  -27.6710   -7.3410  -32.8760 N   0  0  0  0  0  0  0  0  0  0  0  0
  -27.3760   -9.1900  -31.4040 N   0  0  0  0  0  0  0  0  0  0  0  0
  -28.2180  -10.1530  -31.9540 C   0  0  0  0  0  0  0  0  0  0  0  0
  -29.1290  -10.7100  -31.1410 C   0  0  0  0  0  0  0  0  0  0  0  0
  -29.5745  -10.5983  -29.7463 C   0  0  0  0  0  0  0  0  0  0  0  0
  1  2  2  0
  1  3  1  0
  3  4  1  0
  4  5  1  0
  5  6  1  0
M  END
>  <name>  (5) 
Car Nac Nd0 Car Car Car

>  <indices>  (5) 
[0, 1, 2]

>  <dummy>  (5) 
1

>  <tasks>  (5) 
probe_placing close_aromatic_ring close_aromatic_ring

>  <current_task>  (5) 
close_aromatic_ring

>  <prot_clashes>  (5) 
3

>  <NBS phar>  (5) 
0.2

>  <NBS_non-phar>  (5) 
0.7743264198303222

>  <NBS>  (5) 
0.9743264198303223

>  <source_stage>  (5) 
scored

>  <source_iter>  (5) 
2

>  <source_parent_mol>  (5) 
2

>  <source_scenario>  (5) 
0 2

>  <source_rank_in_scored_call>  (5) 
0

>  <source_current_task>  (5) 
close_aromatic_ring

>  <rotatable_bond_torsions>  (5) 
1,0,2,3;0,2,3,4

>  <scenario>  (5) 
0 2

>  <reason_to_skip>  (5) 
bad angles

$$$$

     RDKit          3D

  6  5  0  0  0  0  0  0  0  0999 V2000
  -27.3780   -7.8060  -31.6290 C   0  0  0  0  0  0  0  0  0  0  0  0
  -27.6710   -7.3410  -32.8760 N   0  0  0  0  0  0  0  0  0  0  0  0
  -27.3760   -9.1900  -31.4040 N   0  0  0  0  0  0  0  0  0  0  0  0
  -28.2180  -10.1530  -31.9540 C   0  0  0  0  0  0  0  0  0  0  0  0
  -29.1290  -10.7100  -31.1410 C   0  0  0  0  0  0  0  0  0  0  0  0
  -30.0028  -11.7248  -31.7028 C   0  0  0  0  0  0  0  0  0  0  0  0
  1  2  2  0
  1  3  1  0
  3  4  1  0
  4  5  1  0
  5  6  1  0
M  END
>  <name>  (6) 
Car Nac Nd0 Car Car Car

>  <indices>  (6) 
[0, 1, 2]

>  <dummy>  (6) 
1

>  <tasks>  (6) 
probe_placing close_aromatic_ring close_aromatic_ring

>  <current_task>  (6) 
close_aromatic_ring

>  <prot_clashes>  (6) 
3

>  <NBS phar>  (6) 
0.2

>  <NBS_non-phar>  (6) 
0.7743264198303222

>  <NBS>  (6) 
0.9743264198303223

>  <source_stage>  (6) 
scored

>  <source_iter>  (6) 
2

>  <source_parent_mol>  (6) 
2

>  <source_scenario>  (6) 
0 2

>  <source_rank_in_scored_call>  (6) 
0

>  <source_current_task>  (6) 
close_aromatic_ring

>  <rotatable_bond_torsions>  (6) 
1,0,2,3;0,2,3,4

>  <scenario>  (6) 
0 2

>  <reason_to_skip>  (6) 
incorrect arom ring closing

$$$$

     RDKit          3D

  6  5  0  0  0  0  0  0  0  0999 V2000
  -27.3780   -7.8060  -31.6290 C   0  0  0  0  0  0  0  0  0  0  0  0
  -27.6710   -7.3410  -32.8760 N   0  0  0  0  0  0  0  0  0  0  0  0
  -27.3760   -9.1900  -31.4040 N   0  0  0  0  0  0  0  0  0  0  0  0
  -28.2180  -10.1530  -31.9540 C   0  0  0  0  0  0  0  0  0  0  0  0
  -29.1290  -10.7100  -31.1410 C   0  0  0  0  0  0  0  0  0  0  0  0
  -28.9130  -10.0973  -29.8891 N   0  0  0  0  0  0  0  0  0  0  0  0
  1  2  2  0
  1  3  1  0
  3  4  1  0
  4  5  1  0
  5  6  1  0
M  END
>  <name>  (7) 
Car Nac Nd0 Car Car Nac

>  <indices>  (7) 
[0, 1, 2]

>  <dummy>  (7) 
1

>  <tasks>  (7) 
probe_placing close_aromatic_ring close_aromatic_ring

>  <current_task>  (7) 
close_aromatic_ring

>  <prot_clashes>  (7) 
3

>  <NBS phar>  (7) 
0.2

>  <NBS_non-phar>  (7) 
0.7743264198303222

>  <NBS>  (7) 
0.9743264198303223

>  <source_stage>  (7) 
scored

>  <source_iter>  (7) 
2

>  <source_parent_mol>  (7) 
2

>  <source_scenario>  (7) 
0 2

>  <source_rank_in_scored_call>  (7) 
0

>  <source_current_task>  (7) 
close_aromatic_ring

>  <rotatable_bond_torsions>  (7) 
1,0,2,3;0,2,3,4

>  <scenario>  (7) 
0 2

>  <reason_to_skip>  (7) 
incorrect arom ring closing

$$$$

     RDKit          3D

  6  5  0  0  0  0  0  0  0  0999 V2000
  -27.3780   -7.8060  -31.6290 C   0  0  0  0  0  0  0  0  0  0  0  0
  -27.6710   -7.3410  -32.8760 N   0  0  0  0  0  0  0  0  0  0  0  0
  -27.3760   -9.1900  -31.4040 N   0  0  0  0  0  0  0  0  0  0  0  0
  -28.2180  -10.1530  -31.9540 C   0  0  0  0  0  0  0  0  0  0  0  0
  -29.1290  -10.7100  -31.1410 C   0  0  0  0  0  0  0  0  0  0  0  0
  -28.9197  -10.0638  -29.8858 C   0  0  0  0  0  0  0  0  0  0  0  0
  1  2  2  0
  1  3  1  0
  3  4  1  0
  4  5  1  0
  5  6  1  0
M  END
>  <name>  (8) 
Car Nac Nd0 Car Car Car

>  <indices>  (8) 
[0, 1, 2]

>  <dummy>  (8) 
1

>  <tasks>  (8) 
probe_placing close_aromatic_ring close_aromatic_ring

>  <current_task>  (8) 
close_aromatic_ring

>  <prot_clashes>  (8) 
3

>  <NBS phar>  (8) 
0.2

>  <NBS_non-phar>  (8) 
0.7743264198303222

>  <NBS>  (8) 
0.9743264198303223

>  <source_stage>  (8) 
scored

>  <source_iter>  (8) 
2

>  <source_parent_mol>  (8) 
2

>  <source_scenario>  (8) 
0 2

>  <source_rank_in_scored_call>  (8) 
0

>  <source_current_task>  (8) 
close_aromatic_ring

>  <rotatable_bond_torsions>  (8) 
1,0,2,3;0,2,3,4

>  <scenario>  (8) 
0 2

>  <reason_to_skip>  (8) 
incorrect arom ring closing

$$$$

     RDKit          3D

  6  5  0  0  0  0  0  0  0  0999 V2000
  -27.3780   -7.8060  -31.6290 C   0  0  0  0  0  0  0  0  0  0  0  0
  -27.6710   -7.3410  -32.8760 N   0  0  0  0  0  0  0  0  0  0  0  0
  -27.3760   -9.1900  -31.4040 N   0  0  0  0  0  0  0  0  0  0  0  0
  -28.2180  -10.1530  -31.9540 C   0  0  0  0  0  0  0  0  0  0  0  0
  -29.1290  -10.7100  -31.1410 C   0  0  0  0  0  0  0  0  0  0  0  0
  -30.5824  -10.7418  -31.4554 C   0  0  0  0  0  0  0  0  0  0  0  0
  1  2  2  0
  1  3  1  0
  3  4  1  0
  4  5  1  0
  5  6  2  0
M  END
>  <name>  (9) 
Car Nac Nd0 Car Car Car

>  <indices>  (9) 
[0, 1, 2]

>  <dummy>  (9) 
1

>  <tasks>  (9) 
probe_placing close_aromatic_ring close_aromatic_ring

>  <current_task>  (9) 
close_aromatic_ring

>  <prot_clashes>  (9) 
3

>  <NBS phar>  (9) 
0.2

>  <NBS_non-phar>  (9) 
0.7743264198303222

>  <NBS>  (9) 
0.9743264198303223

>  <source_stage>  (9) 
scored

>  <source_iter>  (9) 
2

>  <source_parent_mol>  (9) 
2

>  <source_scenario>  (9) 
0 2

>  <source_rank_in_scored_call>  (9) 
0

>  <source_current_task>  (9) 
close_aromatic_ring

>  <rotatable_bond_torsions>  (9) 
1,0,2,3;0,2,3,4

>  <scenario>  (9) 
0 2

>  <reason_to_skip>  (9) 
incorrect arom ring closing

$$$$

     RDKit          3D

  6  5  0  0  0  0  0  0  0  0999 V2000
  -27.3780   -7.8060  -31.6290 C   0  0  0  0  0  0  0  0  0  0  0  0
  -27.6710   -7.3410  -32.8760 N   0  0  0  0  0  0  0  0  0  0  0  0
  -27.3760   -9.1900  -31.4040 N   0  0  0  0  0  0  0  0  0  0  0  0
  -28.2180  -10.1530  -31.9540 C   0  0  0  0  0  0  0  0  0  0  0  0
  -29.1290  -10.7100  -31.1410 C   0  0  0  0  0  0  0  0  0  0  0  0
    0.0000    0.0000    0.0000 O   0  0  0  0  0  0  0  0  0  0  0  0
  1  2  2  0
  1  3  1  0
  3  4  1  0
  4  5  1  0
  5  6  1  0
M  END
>  <name>  (10) 
Car Nac Nd0 Car Car O_a

>  <indices>  (10) 
[0, 1, 2]

>  <dummy>  (10) 
1

>  <tasks>  (10) 
probe_placing close_aromatic_ring close_aromatic_ring

>  <current_task>  (10) 
close_aromatic_ring

>  <prot_clashes>  (10) 
3

>  <NBS phar>  (10) 
0.2

>  <NBS_non-phar>  (10) 
0.7743264198303222

>  <NBS>  (10) 
0.9743264198303223

>  <source_stage>  (10) 
scored

>  <source_iter>  (10) 
2

>  <source_parent_mol>  (10) 
2

>  <source_scenario>  (10) 
0 2

>  <source_rank_in_scored_call>  (10) 
0

>  <source_current_task>  (10) 
close_aromatic_ring

>  <rotatable_bond_torsions>  (10) 
1,0,2,3;0,2,3,4

>  <scenario>  (10) 
0 2

>  <reason_to_skip>  (10) 
some_atom_counter_exceeded

$$$$

     RDKit          3D

  6  5  0  0  0  0  0  0  0  0999 V2000
  -27.3780   -7.8060  -31.6290 C   0  0  0  0  0  0  0  0  0  0  0  0
  -27.6710   -7.3410  -32.8760 N   0  0  0  0  0  0  0  0  0  0  0  0
  -27.3760   -9.1900  -31.4040 N   0  0  0  0  0  0  0  0  0  0  0  0
  -28.2180  -10.1530  -31.9540 C   0  0  0  0  0  0  0  0  0  0  0  0
  -29.1290  -10.7100  -31.1410 C   0  0  0  0  0  0  0  0  0  0  0  0
  -29.8558  -11.6586  -31.9060 N   0  0  0  0  0  0  0  0  0  0  0  0
  1  2  2  0
  1  3  1  0
  3  4  1  0
  4  5  1  0
  5  6  2  0
M  END
>  <name>  (11) 
Car Nac Nd0 Car Car Nac

>  <indices>  (11) 
[0, 1, 2]

>  <dummy>  (11) 
1

>  <tasks>  (11) 
probe_placing close_aromatic_ring close_aromatic_ring

>  <current_task>  (11) 
close_aromatic_ring

>  <prot_clashes>  (11) 
3

>  <NBS phar>  (11) 
0.2

>  <NBS_non-phar>  (11) 
0.7743264198303222

>  <NBS>  (11) 
0.9743264198303223

>  <source_stage>  (11) 
scored

>  <source_iter>  (11) 
2

>  <source_parent_mol>  (11) 
2

>  <source_scenario>  (11) 
0 2

>  <source_rank_in_scored_call>  (11) 
0

>  <source_current_task>  (11) 
close_aromatic_ring

>  <rotatable_bond_torsions>  (11) 
1,0,2,3;0,2,3,4

>  <scenario>  (11) 
0 2

>  <reason_to_skip>  (11) 
incorrect arom ring closing

$$$$

     RDKit          3D

  6  5  0  0  0  0  0  0  0  0999 V2000
  -27.3780   -7.8060  -31.6290 C   0  0  0  0  0  0  0  0  0  0  0  0
  -27.6710   -7.3410  -32.8760 N   0  0  0  0  0  0  0  0  0  0  0  0
  -27.3760   -9.1900  -31.4040 N   0  0  0  0  0  0  0  0  0  0  0  0
  -28.2180  -10.1530  -31.9540 C   0  0  0  0  0  0  0  0  0  0  0  0
  -29.1290  -10.7100  -31.1410 C   0  0  0  0  0  0  0  0  0  0  0  0
  -30.1209  -11.6777  -31.3022 N   0  0  0  0  0  0  0  0  0  0  0  0
  1  2  2  0
  1  3  1  0
  3  4  1  0
  4  5  1  0
  5  6  1  0
M  END
>  <name>  (12) 
Car Nac Nd0 Car Car Nd0

>  <indices>  (12) 
[0, 1, 2]

>  <dummy>  (12) 
1

>  <tasks>  (12) 
probe_placing close_aromatic_ring close_aromatic_ring

>  <current_task>  (12) 
close_aromatic_ring

>  <prot_clashes>  (12) 
3

>  <NBS phar>  (12) 
0.2

>  <NBS_non-phar>  (12) 
0.7743264198303222

>  <NBS>  (12) 
0.9743264198303223

>  <source_stage>  (12) 
scored

>  <source_iter>  (12) 
2

>  <source_parent_mol>  (12) 
2

>  <source_scenario>  (12) 
0 2

>  <source_rank_in_scored_call>  (12) 
0

>  <source_current_task>  (12) 
close_aromatic_ring

>  <rotatable_bond_torsions>  (12) 
1,0,2,3;0,2,3,4

>  <scenario>  (12) 
0 2

>  <reason_to_skip>  (12) 
incorrect arom ring closing

$$$$

     RDKit          3D

  6  5  0  0  0  0  0  0  0  0999 V2000
  -27.3780   -7.8060  -31.6290 C   0  0  0  0  0  0  0  0  0  0  0  0
  -27.6710   -7.3410  -32.8760 N   0  0  0  0  0  0  0  0  0  0  0  0
  -27.3760   -9.1900  -31.4040 N   0  0  0  0  0  0  0  0  0  0  0  0
  -28.2180  -10.1530  -31.9540 C   0  0  0  0  0  0  0  0  0  0  0  0
  -29.1290  -10.7100  -31.1410 C   0  0  0  0  0  0  0  0  0  0  0  0
  -30.0238  -11.6911  -31.6524 N   0  0  0  0  0  0  0  0  0  0  0  0
  1  2  2  0
  1  3  1  0
  3  4  1  0
  4  5  1  0
  5  6  1  0
M  END
>  <name>  (13) 
Car Nac Nd0 Car Car Nac

>  <indices>  (13) 
[0, 1, 2]

>  <dummy>  (13) 
1

>  <tasks>  (13) 
probe_placing close_aromatic_ring close_aromatic_ring

>  <current_task>  (13) 
close_aromatic_ring

>  <prot_clashes>  (13) 
3

>  <NBS phar>  (13) 
0.2

>  <NBS_non-phar>  (13) 
0.7743264198303222

>  <NBS>  (13) 
0.9743264198303223

>  <source_stage>  (13) 
scored

>  <source_iter>  (13) 
2

>  <source_parent_mol>  (13) 
2

>  <source_scenario>  (13) 
0 2

>  <source_rank_in_scored_call>  (13) 
0

>  <source_current_task>  (13) 
close_aromatic_ring

>  <rotatable_bond_torsions>  (13) 
1,0,2,3;0,2,3,4

>  <scenario>  (13) 
0 2

>  <reason_to_skip>  (13) 
incorrect arom ring closing

$$$$

     RDKit          3D

  6  5  0  0  0  0  0  0  0  0999 V2000
  -27.3780   -7.8060  -31.6290 C   0  0  0  0  0  0  0  0  0  0  0  0
  -27.6710   -7.3410  -32.8760 N   0  0  0  0  0  0  0  0  0  0  0  0
  -27.3760   -9.1900  -31.4040 N   0  0  0  0  0  0  0  0  0  0  0  0
  -28.2180  -10.1530  -31.9540 C   0  0  0  0  0  0  0  0  0  0  0  0
  -29.1290  -10.7100  -31.1410 C   0  0  0  0  0  0  0  0  0  0  0  0
    0.0000    0.0000    0.0000 O   0  0  0  0  0  0  0  0  0  0  0  0
  1  2  2  0
  1  3  1  0
  3  4  1  0
  4  5  1  0
  5  6  1  0
M  END
>  <name>  (14) 
Car Nac Nd0 Car Car O_a

>  <indices>  (14) 
[0, 1, 2]

>  <dummy>  (14) 
1

>  <tasks>  (14) 
probe_placing close_aromatic_ring close_aromatic_ring

>  <current_task>  (14) 
close_aromatic_ring

>  <prot_clashes>  (14) 
3

>  <NBS phar>  (14) 
0.2

>  <NBS_non-phar>  (14) 
0.7743264198303222

>  <NBS>  (14) 
0.9743264198303223

>  <source_stage>  (14) 
scored

>  <source_iter>  (14) 
2

>  <source_parent_mol>  (14) 
2

>  <source_scenario>  (14) 
0 2

>  <source_rank_in_scored_call>  (14) 
0

>  <source_current_task>  (14) 
close_aromatic_ring

>  <rotatable_bond_torsions>  (14) 
1,0,2,3;0,2,3,4

>  <scenario>  (14) 
0 2

>  <reason_to_skip>  (14) 
some_atom_counter_exceeded

$$$$

     RDKit          3D

  6  5  0  0  0  0  0  0  0  0999 V2000
  -27.3780   -7.8060  -31.6290 C   0  0  0  0  0  0  0  0  0  0  0  0
  -27.6710   -7.3410  -32.8760 N   0  0  0  0  0  0  0  0  0  0  0  0
  -27.3760   -9.1900  -31.4040 N   0  0  0  0  0  0  0  0  0  0  0  0
  -28.2180  -10.1530  -31.9540 C   0  0  0  0  0  0  0  0  0  0  0  0
  -29.1290  -10.7100  -31.1410 C   0  0  0  0  0  0  0  0  0  0  0  0
  -30.4379  -10.1395  -31.2700 C   0  0  0  0  0  0  0  0  0  0  0  0
  1  2  2  0
  1  3  1  0
  3  4  1  0
  4  5  1  0
  5  6  1  0
M  END
>  <name>  (15) 
Car Nac Nd0 Car Car Car

>  <indices>  (15) 
[0, 1, 2]

>  <dummy>  (15) 
1

>  <tasks>  (15) 
probe_placing close_aromatic_ring close_aromatic_ring

>  <current_task>  (15) 
close_aromatic_ring

>  <prot_clashes>  (15) 
3

>  <NBS phar>  (15) 
0.2

>  <NBS_non-phar>  (15) 
0.7743264198303222

>  <NBS>  (15) 
0.9743264198303223

>  <source_stage>  (15) 
scored

>  <source_iter>  (15) 
2

>  <source_parent_mol>  (15) 
2

>  <source_scenario>  (15) 
0 2

>  <source_rank_in_scored_call>  (15) 
0

>  <source_current_task>  (15) 
close_aromatic_ring

>  <rotatable_bond_torsions>  (15) 
1,0,2,3;0,2,3,4

>  <scenario>  (15) 
0 2

>  <reason_to_skip>  (15) 
incorrect arom ring closing

$$$$

     RDKit          3D

  6  5  0  0  0  0  0  0  0  0999 V2000
  -27.3780   -7.8060  -31.6290 C   0  0  0  0  0  0  0  0  0  0  0  0
  -27.6710   -7.3410  -32.8760 N   0  0  0  0  0  0  0  0  0  0  0  0
  -27.3760   -9.1900  -31.4040 N   0  0  0  0  0  0  0  0  0  0  0  0
  -28.2180  -10.1530  -31.9540 C   0  0  0  0  0  0  0  0  0  0  0  0
  -29.1290  -10.7100  -31.1410 C   0  0  0  0  0  0  0  0  0  0  0  0
  -29.2773  -10.3677  -29.8407 N   0  0  0  0  0  0  0  0  0  0  0  0
  1  2  2  0
  1  3  1  0
  3  4  1  0
  4  5  1  0
  5  6  1  0
M  END
>  <name>  (16) 
Car Nac Nd0 Car Car Nd0

>  <indices>  (16) 
[0, 1, 2]

>  <dummy>  (16) 
1

>  <tasks>  (16) 
probe_placing close_aromatic_ring close_aromatic_ring

>  <current_task>  (16) 
close_aromatic_ring

>  <prot_clashes>  (16) 
3

>  <NBS phar>  (16) 
0.2

>  <NBS_non-phar>  (16) 
0.7743264198303222

>  <NBS>  (16) 
0.9743264198303223

>  <source_stage>  (16) 
scored

>  <source_iter>  (16) 
2

>  <source_parent_mol>  (16) 
2

>  <source_scenario>  (16) 
0 2

>  <source_rank_in_scored_call>  (16) 
0

>  <source_current_task>  (16) 
close_aromatic_ring

>  <rotatable_bond_torsions>  (16) 
1,0,2,3;0,2,3,4

>  <scenario>  (16) 
0 2

>  <reason_to_skip>  (16) 
intramol repulsion

$$$$

     RDKit          3D

  6  5  0  0  0  0  0  0  0  0999 V2000
  -27.3780   -7.8060  -31.6290 C   0  0  0  0  0  0  0  0  0  0  0  0
  -27.6710   -7.3410  -32.8760 N   0  0  0  0  0  0  0  0  0  0  0  0
  -27.3760   -9.1900  -31.4040 N   0  0  0  0  0  0  0  0  0  0  0  0
  -28.2180  -10.1530  -31.9540 C   0  0  0  0  0  0  0  0  0  0  0  0
  -29.1290  -10.7100  -31.1410 C   0  0  0  0  0  0  0  0  0  0  0  0
  -29.9731  -11.6392  -31.6570 N   0  0  0  0  0  0  0  0  0  0  0  0
  1  2  2  0
  1  3  1  0
  3  4  1  0
  4  5  1  0
  5  6  1  0
M  END
>  <name>  (17) 
Car Nac Nd0 Car Car Nd0

>  <indices>  (17) 
[0, 1, 2]

>  <dummy>  (17) 
1

>  <tasks>  (17) 
probe_placing close_aromatic_ring close_aromatic_ring

>  <current_task>  (17) 
close_aromatic_ring

>  <prot_clashes>  (17) 
3

>  <NBS phar>  (17) 
0.2

>  <NBS_non-phar>  (17) 
0.7743264198303222

>  <NBS>  (17) 
0.9743264198303223

>  <source_stage>  (17) 
scored

>  <source_iter>  (17) 
2

>  <source_parent_mol>  (17) 
2

>  <source_scenario>  (17) 
0 2

>  <source_rank_in_scored_call>  (17) 
0

>  <source_current_task>  (17) 
close_aromatic_ring

>  <rotatable_bond_torsions>  (17) 
1,0,2,3;0,2,3,4

>  <scenario>  (17) 
0 2

>  <reason_to_skip>  (17) 
incorrect arom ring closing

$$$$

     RDKit          3D

  6  5  0  0  0  0  0  0  0  0999 V2000
  -27.3780   -7.8060  -31.6290 C   0  0  0  0  0  0  0  0  0  0  0  0
  -27.6710   -7.3410  -32.8760 N   0  0  0  0  0  0  0  0  0  0  0  0
  -27.3760   -9.1900  -31.4040 N   0  0  0  0  0  0  0  0  0  0  0  0
  -28.2180  -10.1530  -31.9540 C   0  0  0  0  0  0  0  0  0  0  0  0
  -29.1290  -10.7100  -31.1410 C   0  0  0  0  0  0  0  0  0  0  0  0
    0.0000    0.0000    0.0000 S   0  0  0  0  0  0  0  0  0  0  0  0
  1  2  2  0
  1  3  1  0
  3  4  1  0
  4  5  1  0
  5  6  1  0
M  END
>  <name>  (18) 
Car Nac Nd0 Car Car Sul

>  <indices>  (18) 
[0, 1, 2]

>  <dummy>  (18) 
1

>  <tasks>  (18) 
probe_placing close_aromatic_ring close_aromatic_ring

>  <current_task>  (18) 
close_aromatic_ring

>  <prot_clashes>  (18) 
3

>  <NBS phar>  (18) 
0.2

>  <NBS_non-phar>  (18) 
0.7743264198303222

>  <NBS>  (18) 
0.9743264198303223

>  <source_stage>  (18) 
scored

>  <source_iter>  (18) 
2

>  <source_parent_mol>  (18) 
2

>  <source_scenario>  (18) 
0 2

>  <source_rank_in_scored_call>  (18) 
0

>  <source_current_task>  (18) 
close_aromatic_ring

>  <rotatable_bond_torsions>  (18) 
1,0,2,3;0,2,3,4

>  <scenario>  (18) 
0 2

>  <reason_to_skip>  (18) 
some_atom_counter_exceeded

$$$$

     RDKit          3D

  6  5  0  0  0  0  0  0  0  0999 V2000
  -27.3780   -7.8060  -31.6290 C   0  0  0  0  0  0  0  0  0  0  0  0
  -27.6710   -7.3410  -32.8760 N   0  0  0  0  0  0  0  0  0  0  0  0
  -27.3760   -9.1900  -31.4040 N   0  0  0  0  0  0  0  0  0  0  0  0
  -28.2180  -10.1530  -31.9540 C   0  0  0  0  0  0  0  0  0  0  0  0
  -29.1290  -10.7100  -31.1410 C   0  0  0  0  0  0  0  0  0  0  0  0
  -30.5786  -10.4531  -31.2324 C   0  0  0  0  0  0  0  0  0  0  0  0
  1  2  2  0
  1  3  1  0
  3  4  1  0
  4  5  1  0
  5  6  1  0
M  END
>  <name>  (19) 
Car Nac Nd0 Car Car Car

>  <indices>  (19) 
[0, 1, 2]

>  <dummy>  (19) 
1

>  <tasks>  (19) 
probe_placing close_aromatic_ring close_aromatic_ring

>  <current_task>  (19) 
close_aromatic_ring

>  <prot_clashes>  (19) 
3

>  <NBS phar>  (19) 
0.2

>  <NBS_non-phar>  (19) 
0.7743264198303222

>  <NBS>  (19) 
0.9743264198303223

>  <source_stage>  (19) 
scored

>  <source_iter>  (19) 
2

>  <source_parent_mol>  (19) 
2

>  <source_scenario>  (19) 
0 2

>  <source_rank_in_scored_call>  (19) 
0

>  <source_current_task>  (19) 
close_aromatic_ring

>  <rotatable_bond_torsions>  (19) 
1,0,2,3;0,2,3,4

>  <scenario>  (19) 
0 2

>  <reason_to_skip>  (19) 
incorrect arom ring closing

$$$$

     RDKit          3D

  6  5  0  0  0  0  0  0  0  0999 V2000
  -27.3780   -7.8060  -31.6290 C   0  0  0  0  0  0  0  0  0  0  0  0
  -27.6710   -7.3410  -32.8760 N   0  0  0  0  0  0  0  0  0  0  0  0
  -27.3760   -9.1900  -31.4040 N   0  0  0  0  0  0  0  0  0  0  0  0
  -28.2180  -10.1530  -31.9540 C   0  0  0  0  0  0  0  0  0  0  0  0
  -29.1290  -10.7100  -31.1410 C   0  0  0  0  0  0  0  0  0  0  0  0
  -29.5564  -10.6102  -29.8898 N   0  0  0  0  0  0  0  0  0  0  0  0
  1  2  2  0
  1  3  1  0
  3  4  1  0
  4  5  1  0
  5  6  1  0
M  END
>  <name>  (20) 
Car Nac Nd0 Car Car Nd0

>  <indices>  (20) 
[0, 1, 2]

>  <dummy>  (20) 
1

>  <tasks>  (20) 
probe_placing close_aromatic_ring close_aromatic_ring

>  <current_task>  (20) 
close_aromatic_ring

>  <prot_clashes>  (20) 
3

>  <NBS phar>  (20) 
0.2

>  <NBS_non-phar>  (20) 
0.7743264198303222

>  <NBS>  (20) 
0.9743264198303223

>  <source_stage>  (20) 
scored

>  <source_iter>  (20) 
2

>  <source_parent_mol>  (20) 
2

>  <source_scenario>  (20) 
0 2

>  <source_rank_in_scored_call>  (20) 
0

>  <source_current_task>  (20) 
close_aromatic_ring

>  <rotatable_bond_torsions>  (20) 
1,0,2,3;0,2,3,4

>  <scenario>  (20) 
0 2

>  <reason_to_skip>  (20) 
bad angles

$$$$

     RDKit          3D

  6  5  0  0  0  0  0  0  0  0999 V2000
  -27.3780   -7.8060  -31.6290 C   0  0  0  0  0  0  0  0  0  0  0  0
  -27.6710   -7.3410  -32.8760 N   0  0  0  0  0  0  0  0  0  0  0  0
  -27.3760   -9.1900  -31.4040 N   0  0  0  0  0  0  0  0  0  0  0  0
  -28.2180  -10.1530  -31.9540 C   0  0  0  0  0  0  0  0  0  0  0  0
  -29.1290  -10.7100  -31.1410 C   0  0  0  0  0  0  0  0  0  0  0  0
    0.0000    0.0000    0.0000 O   0  0  0  0  0  0  0  0  0  0  0  0
  1  2  2  0
  1  3  1  0
  3  4  1  0
  4  5  1  0
  5  6  1  0
M  END
>  <name>  (21) 
Car Nac Nd0 Car Car O_a

>  <indices>  (21) 
[0, 1, 2]

>  <dummy>  (21) 
1

>  <tasks>  (21) 
probe_placing close_aromatic_ring close_aromatic_ring

>  <current_task>  (21) 
close_aromatic_ring

>  <prot_clashes>  (21) 
3

>  <NBS phar>  (21) 
0.2

>  <NBS_non-phar>  (21) 
0.7743264198303222

>  <NBS>  (21) 
0.9743264198303223

>  <source_stage>  (21) 
scored

>  <source_iter>  (21) 
2

>  <source_parent_mol>  (21) 
2

>  <source_scenario>  (21) 
0 2

>  <source_rank_in_scored_call>  (21) 
0

>  <source_current_task>  (21) 
close_aromatic_ring

>  <rotatable_bond_torsions>  (21) 
1,0,2,3;0,2,3,4

>  <scenario>  (21) 
0 2

>  <reason_to_skip>  (21) 
some_atom_counter_exceeded

$$$$

     RDKit          3D

  6  5  0  0  0  0  0  0  0  0999 V2000
  -27.3780   -7.8060  -31.6290 C   0  0  0  0  0  0  0  0  0  0  0  0
  -27.6710   -7.3410  -32.8760 N   0  0  0  0  0  0  0  0  0  0  0  0
  -27.3760   -9.1900  -31.4040 N   0  0  0  0  0  0  0  0  0  0  0  0
  -28.2180  -10.1530  -31.9540 C   0  0  0  0  0  0  0  0  0  0  0  0
  -29.1290  -10.7100  -31.1410 C   0  0  0  0  0  0  0  0  0  0  0  0
    0.0000    0.0000    0.0000 S   0  0  0  0  0  0  0  0  0  0  0  0
  1  2  2  0
  1  3  1  0
  3  4  1  0
  4  5  1  0
  5  6  1  0
M  END
>  <name>  (22) 
Car Nac Nd0 Car Car Sul

>  <indices>  (22) 
[0, 1, 2]

>  <dummy>  (22) 
1

>  <tasks>  (22) 
probe_placing close_aromatic_ring close_aromatic_ring

>  <current_task>  (22) 
close_aromatic_ring

>  <prot_clashes>  (22) 
3

>  <NBS phar>  (22) 
0.2

>  <NBS_non-phar>  (22) 
0.7743264198303222

>  <NBS>  (22) 
0.9743264198303223

>  <source_stage>  (22) 
scored

>  <source_iter>  (22) 
2

>  <source_parent_mol>  (22) 
2

>  <source_scenario>  (22) 
0 2

>  <source_rank_in_scored_call>  (22) 
0

>  <source_current_task>  (22) 
close_aromatic_ring

>  <rotatable_bond_torsions>  (22) 
1,0,2,3;0,2,3,4

>  <scenario>  (22) 
0 2

>  <reason_to_skip>  (22) 
some_atom_counter_exceeded

$$$$

     RDKit          3D

  6  5  0  0  0  0  0  0  0  0999 V2000
  -27.3780   -7.8060  -31.6290 C   0  0  0  0  0  0  0  0  0  0  0  0
  -27.6710   -7.3410  -32.8760 N   0  0  0  0  0  0  0  0  0  0  0  0
  -27.3760   -9.1900  -31.4040 N   0  0  0  0  0  0  0  0  0  0  0  0
  -28.2180  -10.1530  -31.9540 C   0  0  0  0  0  0  0  0  0  0  0  0
  -29.1290  -10.7100  -31.1410 C   0  0  0  0  0  0  0  0  0  0  0  0
    0.0000    0.0000    0.0000 S   0  0  0  0  0  0  0  0  0  0  0  0
  1  2  2  0
  1  3  1  0
  3  4  1  0
  4  5  1  0
  5  6  1  0
M  END
>  <name>  (23) 
Car Nac Nd0 Car Car Sul

>  <indices>  (23) 
[0, 1, 2]

>  <dummy>  (23) 
1

>  <tasks>  (23) 
probe_placing close_aromatic_ring close_aromatic_ring

>  <current_task>  (23) 
close_aromatic_ring

>  <prot_clashes>  (23) 
3

>  <NBS phar>  (23) 
0.2

>  <NBS_non-phar>  (23) 
0.7743264198303222

>  <NBS>  (23) 
0.9743264198303223

>  <source_stage>  (23) 
scored

>  <source_iter>  (23) 
2

>  <source_parent_mol>  (23) 
2

>  <source_scenario>  (23) 
0 2

>  <source_rank_in_scored_call>  (23) 
0

>  <source_current_task>  (23) 
close_aromatic_ring

>  <rotatable_bond_torsions>  (23) 
1,0,2,3;0,2,3,4

>  <scenario>  (23) 
0 2

>  <reason_to_skip>  (23) 
some_atom_counter_exceeded

$$$$

     RDKit          3D

  6  5  0  0  0  0  0  0  0  0999 V2000
  -27.3780   -7.8060  -31.6290 C   0  0  0  0  0  0  0  0  0  0  0  0
  -27.6710   -7.3410  -32.8760 N   0  0  0  0  0  0  0  0  0  0  0  0
  -27.3760   -9.1900  -31.4040 N   0  0  0  0  0  0  0  0  0  0  0  0
  -28.2180  -10.1530  -31.9540 C   0  0  0  0  0  0  0  0  0  0  0  0
  -29.1290  -10.7100  -31.1410 C   0  0  0  0  0  0  0  0  0  0  0  0
  -29.0081  -12.0867  -30.9062 C   0  0  0  0  0  0  0  0  0  0  0  0
  1  2  2  0
  1  3  1  0
  3  4  1  0
  4  5  1  0
  5  6  2  0
M  END
>  <name>  (24) 
Car Nac Nd0 Car Car Car

>  <indices>  (24) 
[0, 1, 2]

>  <dummy>  (24) 
1

>  <tasks>  (24) 
probe_placing close_aromatic_ring close_aromatic_ring

>  <current_task>  (24) 
close_aromatic_ring

>  <prot_clashes>  (24) 
3

>  <NBS phar>  (24) 
0.2

>  <NBS_non-phar>  (24) 
0.7743264198303222

>  <NBS>  (24) 
0.9743264198303223

>  <source_stage>  (24) 
scored

>  <source_iter>  (24) 
2

>  <source_parent_mol>  (24) 
2

>  <source_scenario>  (24) 
0 2

>  <source_rank_in_scored_call>  (24) 
0

>  <source_current_task>  (24) 
close_aromatic_ring

>  <rotatable_bond_torsions>  (24) 
1,0,2,3;0,2,3,4

>  <scenario>  (24) 
0 2

>  <reason_to_skip>  (24) 
incorrect arom ring closing

$$$$

     RDKit          3D

  6  5  0  0  0  0  0  0  0  0999 V2000
  -27.3780   -7.8060  -31.6290 C   0  0  0  0  0  0  0  0  0  0  0  0
  -27.6710   -7.3410  -32.8760 N   0  0  0  0  0  0  0  0  0  0  0  0
  -27.3760   -9.1900  -31.4040 N   0  0  0  0  0  0  0  0  0  0  0  0
  -28.2180  -10.1530  -31.9540 C   0  0  0  0  0  0  0  0  0  0  0  0
  -29.1290  -10.7100  -31.1410 C   0  0  0  0  0  0  0  0  0  0  0  0
    0.0000    0.0000    0.0000 S   0  0  0  0  0  0  0  0  0  0  0  0
  1  2  2  0
  1  3  1  0
  3  4  1  0
  4  5  1  0
  5  6  1  0
M  END
>  <name>  (25) 
Car Nac Nd0 Car Car Sul

>  <indices>  (25) 
[0, 1, 2]

>  <dummy>  (25) 
1

>  <tasks>  (25) 
probe_placing close_aromatic_ring close_aromatic_ring

>  <current_task>  (25) 
close_aromatic_ring

>  <prot_clashes>  (25) 
3

>  <NBS phar>  (25) 
0.2

>  <NBS_non-phar>  (25) 
0.7743264198303222

>  <NBS>  (25) 
0.9743264198303223

>  <source_stage>  (25) 
scored

>  <source_iter>  (25) 
2

>  <source_parent_mol>  (25) 
2

>  <source_scenario>  (25) 
0 2

>  <source_rank_in_scored_call>  (25) 
0

>  <source_current_task>  (25) 
close_aromatic_ring

>  <rotatable_bond_torsions>  (25) 
1,0,2,3;0,2,3,4

>  <scenario>  (25) 
0 2

>  <reason_to_skip>  (25) 
some_atom_counter_exceeded

$$$$

     RDKit          3D

  6  5  0  0  0  0  0  0  0  0999 V2000
  -27.3780   -7.8060  -31.6290 C   0  0  0  0  0  0  0  0  0  0  0  0
  -27.6710   -7.3410  -32.8760 N   0  0  0  0  0  0  0  0  0  0  0  0
  -27.3760   -9.1900  -31.4040 N   0  0  0  0  0  0  0  0  0  0  0  0
  -28.2180  -10.1530  -31.9540 C   0  0  0  0  0  0  0  0  0  0  0  0
  -29.1290  -10.7100  -31.1410 C   0  0  0  0  0  0  0  0  0  0  0  0
    0.0000    0.0000    0.0000 O   0  0  0  0  0  0  0  0  0  0  0  0
  1  2  2  0
  1  3  1  0
  3  4  1  0
  4  5  1  0
  5  6  1  0
M  END
>  <name>  (26) 
Car Nac Nd0 Car Car O_a

>  <indices>  (26) 
[0, 1, 2]

>  <dummy>  (26) 
1

>  <tasks>  (26) 
probe_placing close_aromatic_ring close_aromatic_ring

>  <current_task>  (26) 
close_aromatic_ring

>  <prot_clashes>  (26) 
3

>  <NBS phar>  (26) 
0.2

>  <NBS_non-phar>  (26) 
0.7743264198303222

>  <NBS>  (26) 
0.9743264198303223

>  <source_stage>  (26) 
scored

>  <source_iter>  (26) 
2

>  <source_parent_mol>  (26) 
2

>  <source_scenario>  (26) 
0 2

>  <source_rank_in_scored_call>  (26) 
0

>  <source_current_task>  (26) 
close_aromatic_ring

>  <rotatable_bond_torsions>  (26) 
1,0,2,3;0,2,3,4

>  <scenario>  (26) 
0 2

>  <reason_to_skip>  (26) 
some_atom_counter_exceeded

$$$$

     RDKit          3D

  6  5  0  0  0  0  0  0  0  0999 V2000
  -27.3780   -7.8060  -31.6290 C   0  0  0  0  0  0  0  0  0  0  0  0
  -27.6710   -7.3410  -32.8760 N   0  0  0  0  0  0  0  0  0  0  0  0
  -27.3760   -9.1900  -31.4040 N   0  0  0  0  0  0  0  0  0  0  0  0
  -28.2180  -10.1530  -31.9540 C   0  0  0  0  0  0  0  0  0  0  0  0
  -29.1290  -10.7100  -31.1410 C   0  0  0  0  0  0  0  0  0  0  0  0
    0.0000    0.0000    0.0000 S   0  0  0  0  0  0  0  0  0  0  0  0
  1  2  2  0
  1  3  1  0
  3  4  1  0
  4  5  1  0
  5  6  1  0
M  END
>  <name>  (27) 
Car Nac Nd0 Car Car Sul

>  <indices>  (27) 
[0, 1, 2]

>  <dummy>  (27) 
1

>  <tasks>  (27) 
probe_placing close_aromatic_ring close_aromatic_ring

>  <current_task>  (27) 
close_aromatic_ring

>  <prot_clashes>  (27) 
3

>  <NBS phar>  (27) 
0.2

>  <NBS_non-phar>  (27) 
0.7743264198303222

>  <NBS>  (27) 
0.9743264198303223

>  <source_stage>  (27) 
scored

>  <source_iter>  (27) 
2

>  <source_parent_mol>  (27) 
2

>  <source_scenario>  (27) 
0 2

>  <source_rank_in_scored_call>  (27) 
0

>  <source_current_task>  (27) 
close_aromatic_ring

>  <rotatable_bond_torsions>  (27) 
1,0,2,3;0,2,3,4

>  <scenario>  (27) 
0 2

>  <reason_to_skip>  (27) 
some_atom_counter_exceeded

$$$$

     RDKit          3D

  6  5  0  0  0  0  0  0  0  0999 V2000
  -27.3780   -7.8060  -31.6290 C   0  0  0  0  0  0  0  0  0  0  0  0
  -27.6710   -7.3410  -32.8760 N   0  0  0  0  0  0  0  0  0  0  0  0
  -27.3760   -9.1900  -31.4040 N   0  0  0  0  0  0  0  0  0  0  0  0
  -28.2180  -10.1530  -31.9540 C   0  0  0  0  0  0  0  0  0  0  0  0
  -29.1290  -10.7100  -31.1410 C   0  0  0  0  0  0  0  0  0  0  0  0
    0.0000    0.0000    0.0000 S   0  0  0  0  0  0  0  0  0  0  0  0
  1  2  2  0
  1  3  1  0
  3  4  1  0
  4  5  1  0
  5  6  1  0
M  END
>  <name>  (28) 
Car Nac Nd0 Car Car Sul

>  <indices>  (28) 
[0, 1, 2]

>  <dummy>  (28) 
1

>  <tasks>  (28) 
probe_placing close_aromatic_ring close_aromatic_ring

>  <current_task>  (28) 
close_aromatic_ring

>  <prot_clashes>  (28) 
3

>  <NBS phar>  (28) 
0.2

>  <NBS_non-phar>  (28) 
0.7743264198303222

>  <NBS>  (28) 
0.9743264198303223

>  <source_stage>  (28) 
scored

>  <source_iter>  (28) 
2

>  <source_parent_mol>  (28) 
2

>  <source_scenario>  (28) 
0 2

>  <source_rank_in_scored_call>  (28) 
0

>  <source_current_task>  (28) 
close_aromatic_ring

>  <rotatable_bond_torsions>  (28) 
1,0,2,3;0,2,3,4

>  <scenario>  (28) 
0 2

>  <reason_to_skip>  (28) 
some_atom_counter_exceeded

$$$$

     RDKit          3D

  6  5  0  0  0  0  0  0  0  0999 V2000
  -27.3780   -7.8060  -31.6290 C   0  0  0  0  0  0  0  0  0  0  0  0
  -27.6710   -7.3410  -32.8760 N   0  0  0  0  0  0  0  0  0  0  0  0
  -27.3760   -9.1900  -31.4040 N   0  0  0  0  0  0  0  0  0  0  0  0
  -28.2180  -10.1530  -31.9540 C   0  0  0  0  0  0  0  0  0  0  0  0
  -29.1290  -10.7100  -31.1410 C   0  0  0  0  0  0  0  0  0  0  0  0
  -29.1499  -12.1246  -30.9115 C   0  0  0  0  0  0  0  0  0  0  0  0
  1  2  2  0
  1  3  1  0
  3  4  1  0
  4  5  1  0
  5  6  1  0
M  END
>  <name>  (29) 
Car Nac Nd0 Car Car Car

>  <indices>  (29) 
[0, 1, 2]

>  <dummy>  (29) 
1

>  <tasks>  (29) 
probe_placing close_aromatic_ring close_aromatic_ring

>  <current_task>  (29) 
close_aromatic_ring

>  <prot_clashes>  (29) 
3

>  <NBS phar>  (29) 
0.2

>  <NBS_non-phar>  (29) 
0.7743264198303222

>  <NBS>  (29) 
0.9743264198303223

>  <source_stage>  (29) 
scored

>  <source_iter>  (29) 
2

>  <source_parent_mol>  (29) 
2

>  <source_scenario>  (29) 
0 2

>  <source_rank_in_scored_call>  (29) 
0

>  <source_current_task>  (29) 
close_aromatic_ring

>  <rotatable_bond_torsions>  (29) 
1,0,2,3;0,2,3,4

>  <scenario>  (29) 
0 2

>  <reason_to_skip>  (29) 
incorrect arom ring closing

$$$$

     RDKit          3D

  6  5  0  0  0  0  0  0  0  0999 V2000
  -27.3780   -7.8060  -31.6290 C   0  0  0  0  0  0  0  0  0  0  0  0
  -27.6710   -7.3410  -32.8760 N   0  0  0  0  0  0  0  0  0  0  0  0
  -27.3760   -9.1900  -31.4040 N   0  0  0  0  0  0  0  0  0  0  0  0
  -28.2180  -10.1530  -31.9540 C   0  0  0  0  0  0  0  0  0  0  0  0
  -29.1290  -10.7100  -31.1410 C   0  0  0  0  0  0  0  0  0  0  0  0
  -28.8107  -12.0617  -30.4046 C   0  0  0  0  0  0  0  0  0  0  0  0
  1  2  2  0
  1  3  1  0
  3  4  1  0
  4  5  1  0
  5  6  1  0
M  END
>  <name>  (30) 
Car Nac Nd0 Car Car Car

>  <indices>  (30) 
[0, 1, 2]

>  <dummy>  (30) 
1

>  <tasks>  (30) 
probe_placing close_aromatic_ring close_aromatic_ring

>  <current_task>  (30) 
close_aromatic_ring

>  <prot_clashes>  (30) 
3

>  <NBS phar>  (30) 
0.2

>  <NBS_non-phar>  (30) 
0.7743264198303222

>  <NBS>  (30) 
0.9743264198303223

>  <source_stage>  (30) 
scored

>  <source_iter>  (30) 
2

>  <source_parent_mol>  (30) 
2

>  <source_scenario>  (30) 
0 2

>  <source_rank_in_scored_call>  (30) 
0

>  <source_current_task>  (30) 
close_aromatic_ring

>  <rotatable_bond_torsions>  (30) 
1,0,2,3;0,2,3,4

>  <scenario>  (30) 
0 2

>  <reason_to_skip>  (30) 
incorrect arom ring closing

$$$$

     RDKit          3D

  6  5  0  0  0  0  0  0  0  0999 V2000
  -27.3780   -7.8060  -31.6290 C   0  0  0  0  0  0  0  0  0  0  0  0
  -27.6710   -7.3410  -32.8760 N   0  0  0  0  0  0  0  0  0  0  0  0
  -27.3760   -9.1900  -31.4040 N   0  0  0  0  0  0  0  0  0  0  0  0
  -28.2180  -10.1530  -31.9540 C   0  0  0  0  0  0  0  0  0  0  0  0
  -29.1290  -10.7100  -31.1410 C   0  0  0  0  0  0  0  0  0  0  0  0
  -29.3289  -10.4271  -29.7719 C   0  0  0  0  0  0  0  0  0  0  0  0
  1  2  2  0
  1  3  1  0
  3  4  1  0
  4  5  1  0
  5  6  2  0
M  END
>  <name>  (31) 
Car Nac Nd0 Car Car Car

>  <indices>  (31) 
[0, 1, 2]

>  <dummy>  (31) 
1

>  <tasks>  (31) 
probe_placing close_aromatic_ring close_aromatic_ring

>  <current_task>  (31) 
close_aromatic_ring

>  <prot_clashes>  (31) 
3

>  <NBS phar>  (31) 
0.2

>  <NBS_non-phar>  (31) 
0.7743264198303222

>  <NBS>  (31) 
0.9743264198303223

>  <source_stage>  (31) 
scored

>  <source_iter>  (31) 
2

>  <source_parent_mol>  (31) 
2

>  <source_scenario>  (31) 
0 2

>  <source_rank_in_scored_call>  (31) 
0

>  <source_current_task>  (31) 
close_aromatic_ring

>  <rotatable_bond_torsions>  (31) 
1,0,2,3;0,2,3,4

>  <scenario>  (31) 
0 2

>  <reason_to_skip>  (31) 
subgraph mismatch

$$$$

     RDKit          3D

  6  5  0  0  0  0  0  0  0  0999 V2000
  -27.3780   -7.8060  -31.6290 C   0  0  0  0  0  0  0  0  0  0  0  0
  -27.6710   -7.3410  -32.8760 N   0  0  0  0  0  0  0  0  0  0  0  0
  -27.3760   -9.1900  -31.4040 N   0  0  0  0  0  0  0  0  0  0  0  0
  -28.2180  -10.1530  -31.9540 C   0  0  0  0  0  0  0  0  0  0  0  0
  -29.1290  -10.7100  -31.1410 C   0  0  0  0  0  0  0  0  0  0  0  0
  -29.3839  -10.4816  -29.7955 C   0  0  0  0  0  0  0  0  0  0  0  0
  1  2  2  0
  1  3  1  0
  3  4  1  0
  4  5  1  0
  5  6  1  0
M  END
>  <name>  (32) 
Car Nac Nd0 Car Car Car

>  <indices>  (32) 
[0, 1, 2]

>  <dummy>  (32) 
1

>  <tasks>  (32) 
probe_placing close_aromatic_ring close_aromatic_ring

>  <current_task>  (32) 
close_aromatic_ring

>  <prot_clashes>  (32) 
3

>  <NBS phar>  (32) 
0.2

>  <NBS_non-phar>  (32) 
0.7743264198303222

>  <NBS>  (32) 
0.9743264198303223

>  <source_stage>  (32) 
scored

>  <source_iter>  (32) 
2

>  <source_parent_mol>  (32) 
2

>  <source_scenario>  (32) 
0 2

>  <source_rank_in_scored_call>  (32) 
0

>  <source_current_task>  (32) 
close_aromatic_ring

>  <rotatable_bond_torsions>  (32) 
1,0,2,3;0,2,3,4

>  <scenario>  (32) 
0 2

>  <reason_to_skip>  (32) 
subgraph mismatch

$$$$

     RDKit          3D

  6  5  0  0  0  0  0  0  0  0999 V2000
  -27.3780   -7.8060  -31.6290 C   0  0  0  0  0  0  0  0  0  0  0  0
  -27.6710   -7.3410  -32.8760 N   0  0  0  0  0  0  0  0  0  0  0  0
  -27.3760   -9.1900  -31.4040 N   0  0  0  0  0  0  0  0  0  0  0  0
  -28.2180  -10.1530  -31.9540 C   0  0  0  0  0  0  0  0  0  0  0  0
  -29.1290  -10.7100  -31.1410 C   0  0  0  0  0  0  0  0  0  0  0  0
  -29.2241  -10.4293  -29.8118 N   0  0  0  0  0  0  0  0  0  0  0  0
  1  2  2  0
  1  3  1  0
  3  4  1  0
  4  5  1  0
  5  6  2  0
M  END
>  <name>  (33) 
Car Nac Nd0 Car Car Nac

>  <indices>  (33) 
[0, 1, 2]

>  <dummy>  (33) 
1

>  <tasks>  (33) 
probe_placing close_aromatic_ring close_aromatic_ring

>  <current_task>  (33) 
close_aromatic_ring

>  <prot_clashes>  (33) 
3

>  <NBS phar>  (33) 
0.2

>  <NBS_non-phar>  (33) 
0.7743264198303222

>  <NBS>  (33) 
0.9743264198303223

>  <source_stage>  (33) 
scored

>  <source_iter>  (33) 
2

>  <source_parent_mol>  (33) 
2

>  <source_scenario>  (33) 
0 2

>  <source_rank_in_scored_call>  (33) 
0

>  <source_current_task>  (33) 
close_aromatic_ring

>  <rotatable_bond_torsions>  (33) 
1,0,2,3;0,2,3,4

>  <scenario>  (33) 
0 2

>  <reason_to_skip>  (33) 
subgraph mismatch

$$$$

     RDKit          3D

  6  5  0  0  0  0  0  0  0  0999 V2000
  -27.3780   -7.8060  -31.6290 C   0  0  0  0  0  0  0  0  0  0  0  0
  -27.6710   -7.3410  -32.8760 N   0  0  0  0  0  0  0  0  0  0  0  0
  -27.3760   -9.1900  -31.4040 N   0  0  0  0  0  0  0  0  0  0  0  0
  -28.2180  -10.1530  -31.9540 C   0  0  0  0  0  0  0  0  0  0  0  0
  -29.1290  -10.7100  -31.1410 C   0  0  0  0  0  0  0  0  0  0  0  0
  -29.4177  -10.5261  -29.8189 N   0  0  0  0  0  0  0  0  0  0  0  0
  1  2  2  0
  1  3  1  0
  3  4  1  0
  4  5  1  0
  5  6  1  0
M  END
>  <name>  (34) 
Car Nac Nd0 Car Car Nac

>  <indices>  (34) 
[0, 1, 2]

>  <dummy>  (34) 
1

>  <tasks>  (34) 
probe_placing close_aromatic_ring close_aromatic_ring

>  <current_task>  (34) 
close_aromatic_ring

>  <prot_clashes>  (34) 
3

>  <NBS phar>  (34) 
0.2

>  <NBS_non-phar>  (34) 
0.7743264198303222

>  <NBS>  (34) 
0.9743264198303223

>  <source_stage>  (34) 
scored

>  <source_iter>  (34) 
2

>  <source_parent_mol>  (34) 
2

>  <source_scenario>  (34) 
0 2

>  <source_rank_in_scored_call>  (34) 
0

>  <source_current_task>  (34) 
close_aromatic_ring

>  <rotatable_bond_torsions>  (34) 
1,0,2,3;0,2,3,4

>  <scenario>  (34) 
0 2

>  <reason_to_skip>  (34) 
subgraph mismatch

$$$$

     RDKit          3D

  6  5  0  0  0  0  0  0  0  0999 V2000
  -27.5730   -7.6020  -31.6140 C   0  0  0  0  0  0  0  0  0  0  0  0
  -27.7350   -7.1890  -32.9030 N   0  0  0  0  0  0  0  0  0  0  0  0
  -27.7090   -8.9660  -31.3170 N   0  0  0  0  0  0  0  0  0  0  0  0
  -28.5910   -9.8860  -31.8790 C   0  0  0  0  0  0  0  0  0  0  0  0
  -28.2400  -11.2270  -31.7890 C   0  0  0  0  0  0  0  0  0  0  0  0
  -29.1916  -12.3266  -32.3092 C   0  0  0  0  0  0  0  0  0  0  0  0
  1  2  2  0
  1  3  1  0
  3  4  1  0
  4  5  1  0
  5  6  1  0
M  END
>  <name>  (1) 
Car Nac Nd0 Car Car Car

>  <indices>  (1) 
[0, 1, 2]

>  <dummy>  (1) 
1

>  <tasks>  (1) 
probe_placing close_aromatic_ring close_aromatic_ring

>  <current_task>  (1) 
close_aromatic_ring

>  <prot_clashes>  (1) 
3

>  <NBS phar>  (1) 
0.2

>  <NBS_non-phar>  (1) 
0.757138729095459

>  <NBS>  (1) 
0.9571387290954589

>  <source_stage>  (1) 
scored

>  <source_iter>  (1) 
2

>  <source_parent_mol>  (1) 
2

>  <source_scenario>  (1) 
0 2

>  <source_rank_in_scored_call>  (1) 
1

>  <source_current_task>  (1) 
close_aromatic_ring

>  <rotatable_bond_torsions>  (1) 
1,0,2,3;0,2,3,4

>  <scenario>  (1) 
0 2

>  <reason_to_skip>  (1) 
incorrect arom ring closing

$$$$

     RDKit          3D

  6  5  0  0  0  0  0  0  0  0999 V2000
  -27.5730   -7.6020  -31.6140 C   0  0  0  0  0  0  0  0  0  0  0  0
  -27.7350   -7.1890  -32.9030 N   0  0  0  0  0  0  0  0  0  0  0  0
  -27.7090   -8.9660  -31.3170 N   0  0  0  0  0  0  0  0  0  0  0  0
  -28.5910   -9.8860  -31.8790 C   0  0  0  0  0  0  0  0  0  0  0  0
  -28.2400  -11.2270  -31.7890 C   0  0  0  0  0  0  0  0  0  0  0  0
  -29.1448  -12.3025  -32.4776 C   0  0  0  0  0  0  0  0  0  0  0  0
  1  2  2  0
  1  3  1  0
  3  4  1  0
  4  5  1  0
  5  6  2  0
M  END
>  <name>  (2) 
Car Nac Nd0 Car Car Car

>  <indices>  (2) 
[0, 1, 2]

>  <dummy>  (2) 
1

>  <tasks>  (2) 
probe_placing close_aromatic_ring close_aromatic_ring

>  <current_task>  (2) 
close_aromatic_ring

>  <prot_clashes>  (2) 
3

>  <NBS phar>  (2) 
0.2

>  <NBS_non-phar>  (2) 
0.757138729095459

>  <NBS>  (2) 
0.9571387290954589

>  <source_stage>  (2) 
scored

>  <source_iter>  (2) 
2

>  <source_parent_mol>  (2) 
2

>  <source_scenario>  (2) 
0 2

>  <source_rank_in_scored_call>  (2) 
1

>  <source_current_task>  (2) 
close_aromatic_ring

>  <rotatable_bond_torsions>  (2) 
1,0,2,3;0,2,3,4

>  <scenario>  (2) 
0 2

>  <reason_to_skip>  (2) 
incorrect arom ring closing

$$$$

     RDKit          3D

  6  5  0  0  0  0  0  0  0  0999 V2000
  -27.5730   -7.6020  -31.6140 C   0  0  0  0  0  0  0  0  0  0  0  0
  -27.7350   -7.1890  -32.9030 N   0  0  0  0  0  0  0  0  0  0  0  0
  -27.7090   -8.9660  -31.3170 N   0  0  0  0  0  0  0  0  0  0  0  0
  -28.5910   -9.8860  -31.8790 C   0  0  0  0  0  0  0  0  0  0  0  0
  -28.2400  -11.2270  -31.7890 C   0  0  0  0  0  0  0  0  0  0  0  0
  -27.2143  -11.9885  -31.2752 N   0  0  0  0  0  0  0  0  0  0  0  0
  1  2  2  0
  1  3  1  0
  3  4  1  0
  4  5  1  0
  5  6  1  0
M  END
>  <name>  (3) 
Car Nac Nd0 Car Car Nac

>  <indices>  (3) 
[0, 1, 2]

>  <dummy>  (3) 
1

>  <tasks>  (3) 
probe_placing close_aromatic_ring close_aromatic_ring

>  <current_task>  (3) 
close_aromatic_ring

>  <prot_clashes>  (3) 
3

>  <NBS phar>  (3) 
0.2

>  <NBS_non-phar>  (3) 
0.757138729095459

>  <NBS>  (3) 
0.9571387290954589

>  <source_stage>  (3) 
scored

>  <source_iter>  (3) 
2

>  <source_parent_mol>  (3) 
2

>  <source_scenario>  (3) 
0 2

>  <source_rank_in_scored_call>  (3) 
1

>  <source_current_task>  (3) 
close_aromatic_ring

>  <rotatable_bond_torsions>  (3) 
1,0,2,3;0,2,3,4

>  <scenario>  (3) 
0 2

>  <reason_to_skip>  (3) 
bad angles

$$$$

     RDKit          3D

  6  5  0  0  0  0  0  0  0  0999 V2000
  -27.5730   -7.6020  -31.6140 C   0  0  0  0  0  0  0  0  0  0  0  0
  -27.7350   -7.1890  -32.9030 N   0  0  0  0  0  0  0  0  0  0  0  0
  -27.7090   -8.9660  -31.3170 N   0  0  0  0  0  0  0  0  0  0  0  0
  -28.5910   -9.8860  -31.8790 C   0  0  0  0  0  0  0  0  0  0  0  0
  -28.2400  -11.2270  -31.7890 C   0  0  0  0  0  0  0  0  0  0  0  0
  -29.3380  -11.8781  -32.4074 N   0  0  0  0  0  0  0  0  0  0  0  0
  1  2  2  0
  1  3  1  0
  3  4  1  0
  4  5  1  0
  5  6  1  0
M  END
>  <name>  (4) 
Car Nac Nd0 Car Car Nac

>  <indices>  (4) 
[0, 1, 2]

>  <dummy>  (4) 
1

>  <tasks>  (4) 
probe_placing close_aromatic_ring close_aromatic_ring

>  <current_task>  (4) 
close_aromatic_ring

>  <prot_clashes>  (4) 
3

>  <NBS phar>  (4) 
0.2

>  <NBS_non-phar>  (4) 
0.757138729095459

>  <NBS>  (4) 
0.9571387290954589

>  <source_stage>  (4) 
scored

>  <source_iter>  (4) 
2

>  <source_parent_mol>  (4) 
2

>  <source_scenario>  (4) 
0 2

>  <source_rank_in_scored_call>  (4) 
1

>  <source_current_task>  (4) 
close_aromatic_ring

>  <rotatable_bond_torsions>  (4) 
1,0,2,3;0,2,3,4

>  <scenario>  (4) 
0 2

>  <reason_to_skip>  (4) 
incorrect arom ring closing

$$$$

     RDKit          3D

  6  5  0  0  0  0  0  0  0  0999 V2000
  -27.5730   -7.6020  -31.6140 C   0  0  0  0  0  0  0  0  0  0  0  0
  -27.7350   -7.1890  -32.9030 N   0  0  0  0  0  0  0  0  0  0  0  0
  -27.7090   -8.9660  -31.3170 N   0  0  0  0  0  0  0  0  0  0  0  0
  -28.5910   -9.8860  -31.8790 C   0  0  0  0  0  0  0  0  0  0  0  0
  -28.2400  -11.2270  -31.7890 C   0  0  0  0  0  0  0  0  0  0  0  0
  -27.1627  -12.0160  -31.2191 C   0  0  0  0  0  0  0  0  0  0  0  0
  1  2  2  0
  1  3  1  0
  3  4  1  0
  4  5  1  0
  5  6  1  0
M  END
>  <name>  (5) 
Car Nac Nd0 Car Car Car

>  <indices>  (5) 
[0, 1, 2]

>  <dummy>  (5) 
1

>  <tasks>  (5) 
probe_placing close_aromatic_ring close_aromatic_ring

>  <current_task>  (5) 
close_aromatic_ring

>  <prot_clashes>  (5) 
3

>  <NBS phar>  (5) 
0.2

>  <NBS_non-phar>  (5) 
0.757138729095459

>  <NBS>  (5) 
0.9571387290954589

>  <source_stage>  (5) 
scored

>  <source_iter>  (5) 
2

>  <source_parent_mol>  (5) 
2

>  <source_scenario>  (5) 
0 2

>  <source_rank_in_scored_call>  (5) 
1

>  <source_current_task>  (5) 
close_aromatic_ring

>  <rotatable_bond_torsions>  (5) 
1,0,2,3;0,2,3,4

>  <scenario>  (5) 
0 2

>  <reason_to_skip>  (5) 
bad angles

$$$$

     RDKit          3D

  6  5  0  0  0  0  0  0  0  0999 V2000
  -27.5730   -7.6020  -31.6140 C   0  0  0  0  0  0  0  0  0  0  0  0
  -27.7350   -7.1890  -32.9030 N   0  0  0  0  0  0  0  0  0  0  0  0
  -27.7090   -8.9660  -31.3170 N   0  0  0  0  0  0  0  0  0  0  0  0
  -28.5910   -9.8860  -31.8790 C   0  0  0  0  0  0  0  0  0  0  0  0
  -28.2400  -11.2270  -31.7890 C   0  0  0  0  0  0  0  0  0  0  0  0
  -29.1413  -12.1760  -32.3792 C   0  0  0  0  0  0  0  0  0  0  0  0
  1  2  2  0
  1  3  1  0
  3  4  1  0
  4  5  1  0
  5  6  1  0
M  END
>  <name>  (6) 
Car Nac Nd0 Car Car Car

>  <indices>  (6) 
[0, 1, 2]

>  <dummy>  (6) 
1

>  <tasks>  (6) 
probe_placing close_aromatic_ring close_aromatic_ring

>  <current_task>  (6) 
close_aromatic_ring

>  <prot_clashes>  (6) 
3

>  <NBS phar>  (6) 
0.2

>  <NBS_non-phar>  (6) 
0.757138729095459

>  <NBS>  (6) 
0.9571387290954589

>  <source_stage>  (6) 
scored

>  <source_iter>  (6) 
2

>  <source_parent_mol>  (6) 
2

>  <source_scenario>  (6) 
0 2

>  <source_rank_in_scored_call>  (6) 
1

>  <source_current_task>  (6) 
close_aromatic_ring

>  <rotatable_bond_torsions>  (6) 
1,0,2,3;0,2,3,4

>  <scenario>  (6) 
0 2

>  <reason_to_skip>  (6) 
incorrect arom ring closing

$$$$

     RDKit          3D

  6  5  0  0  0  0  0  0  0  0999 V2000
  -27.5730   -7.6020  -31.6140 C   0  0  0  0  0  0  0  0  0  0  0  0
  -27.7350   -7.1890  -32.9030 N   0  0  0  0  0  0  0  0  0  0  0  0
  -27.7090   -8.9660  -31.3170 N   0  0  0  0  0  0  0  0  0  0  0  0
  -28.5910   -9.8860  -31.8790 C   0  0  0  0  0  0  0  0  0  0  0  0
  -28.2400  -11.2270  -31.7890 C   0  0  0  0  0  0  0  0  0  0  0  0
  -27.0051  -11.1978  -31.1145 N   0  0  0  0  0  0  0  0  0  0  0  0
  1  2  2  0
  1  3  1  0
  3  4  1  0
  4  5  1  0
  5  6  1  0
M  END
>  <name>  (7) 
Car Nac Nd0 Car Car Nac

>  <indices>  (7) 
[0, 1, 2]

>  <dummy>  (7) 
1

>  <tasks>  (7) 
probe_placing close_aromatic_ring close_aromatic_ring

>  <current_task>  (7) 
close_aromatic_ring

>  <prot_clashes>  (7) 
3

>  <NBS phar>  (7) 
0.2

>  <NBS_non-phar>  (7) 
0.757138729095459

>  <NBS>  (7) 
0.9571387290954589

>  <source_stage>  (7) 
scored

>  <source_iter>  (7) 
2

>  <source_parent_mol>  (7) 
2

>  <source_scenario>  (7) 
0 2

>  <source_rank_in_scored_call>  (7) 
1

>  <source_current_task>  (7) 
close_aromatic_ring

>  <rotatable_bond_torsions>  (7) 
1,0,2,3;0,2,3,4

>  <scenario>  (7) 
0 2

>  <reason_to_skip>  (7) 
incorrect arom ring closing

$$$$

     RDKit          3D

  6  5  0  0  0  0  0  0  0  0999 V2000
  -27.5730   -7.6020  -31.6140 C   0  0  0  0  0  0  0  0  0  0  0  0
  -27.7350   -7.1890  -32.9030 N   0  0  0  0  0  0  0  0  0  0  0  0
  -27.7090   -8.9660  -31.3170 N   0  0  0  0  0  0  0  0  0  0  0  0
  -28.5910   -9.8860  -31.8790 C   0  0  0  0  0  0  0  0  0  0  0  0
  -28.2400  -11.2270  -31.7890 C   0  0  0  0  0  0  0  0  0  0  0  0
  -27.0042  -11.1877  -31.0817 C   0  0  0  0  0  0  0  0  0  0  0  0
  1  2  2  0
  1  3  1  0
  3  4  1  0
  4  5  1  0
  5  6  1  0
M  END
>  <name>  (8) 
Car Nac Nd0 Car Car Car

>  <indices>  (8) 
[0, 1, 2]

>  <dummy>  (8) 
1

>  <tasks>  (8) 
probe_placing close_aromatic_ring close_aromatic_ring

>  <current_task>  (8) 
close_aromatic_ring

>  <prot_clashes>  (8) 
3

>  <NBS phar>  (8) 
0.2

>  <NBS_non-phar>  (8) 
0.757138729095459

>  <NBS>  (8) 
0.9571387290954589

>  <source_stage>  (8) 
scored

>  <source_iter>  (8) 
2

>  <source_parent_mol>  (8) 
2

>  <source_scenario>  (8) 
0 2

>  <source_rank_in_scored_call>  (8) 
1

>  <source_current_task>  (8) 
close_aromatic_ring

>  <rotatable_bond_torsions>  (8) 
1,0,2,3;0,2,3,4

>  <scenario>  (8) 
0 2

>  <reason_to_skip>  (8) 
incorrect arom ring closing

$$$$

     RDKit          3D

  6  5  0  0  0  0  0  0  0  0999 V2000
  -27.5730   -7.6020  -31.6140 C   0  0  0  0  0  0  0  0  0  0  0  0
  -27.7350   -7.1890  -32.9030 N   0  0  0  0  0  0  0  0  0  0  0  0
  -27.7090   -8.9660  -31.3170 N   0  0  0  0  0  0  0  0  0  0  0  0
  -28.5910   -9.8860  -31.8790 C   0  0  0  0  0  0  0  0  0  0  0  0
  -28.2400  -11.2270  -31.7890 C   0  0  0  0  0  0  0  0  0  0  0  0
  -29.1404  -12.2365  -31.2127 C   0  0  0  0  0  0  0  0  0  0  0  0
  1  2  2  0
  1  3  1  0
  3  4  1  0
  4  5  1  0
  5  6  2  0
M  END
>  <name>  (9) 
Car Nac Nd0 Car Car Car

>  <indices>  (9) 
[0, 1, 2]

>  <dummy>  (9) 
1

>  <tasks>  (9) 
probe_placing close_aromatic_ring close_aromatic_ring

>  <current_task>  (9) 
close_aromatic_ring

>  <prot_clashes>  (9) 
3

>  <NBS phar>  (9) 
0.2

>  <NBS_non-phar>  (9) 
0.757138729095459

>  <NBS>  (9) 
0.9571387290954589

>  <source_stage>  (9) 
scored

>  <source_iter>  (9) 
2

>  <source_parent_mol>  (9) 
2

>  <source_scenario>  (9) 
0 2

>  <source_rank_in_scored_call>  (9) 
1

>  <source_current_task>  (9) 
close_aromatic_ring

>  <rotatable_bond_torsions>  (9) 
1,0,2,3;0,2,3,4

>  <scenario>  (9) 
0 2

>  <reason_to_skip>  (9) 
incorrect arom ring closing

$$$$

     RDKit          3D

  6  5  0  0  0  0  0  0  0  0999 V2000
  -27.5730   -7.6020  -31.6140 C   0  0  0  0  0  0  0  0  0  0  0  0
  -27.7350   -7.1890  -32.9030 N   0  0  0  0  0  0  0  0  0  0  0  0
  -27.7090   -8.9660  -31.3170 N   0  0  0  0  0  0  0  0  0  0  0  0
  -28.5910   -9.8860  -31.8790 C   0  0  0  0  0  0  0  0  0  0  0  0
  -28.2400  -11.2270  -31.7890 C   0  0  0  0  0  0  0  0  0  0  0  0
    0.0000    0.0000    0.0000 O   0  0  0  0  0  0  0  0  0  0  0  0
  1  2  2  0
  1  3  1  0
  3  4  1  0
  4  5  1  0
  5  6  1  0
M  END
>  <name>  (10) 
Car Nac Nd0 Car Car O_a

>  <indices>  (10) 
[0, 1, 2]

>  <dummy>  (10) 
1

>  <tasks>  (10) 
probe_placing close_aromatic_ring close_aromatic_ring

>  <current_task>  (10) 
close_aromatic_ring

>  <prot_clashes>  (10) 
3

>  <NBS phar>  (10) 
0.2

>  <NBS_non-phar>  (10) 
0.757138729095459

>  <NBS>  (10) 
0.9571387290954589

>  <source_stage>  (10) 
scored

>  <source_iter>  (10) 
2

>  <source_parent_mol>  (10) 
2

>  <source_scenario>  (10) 
0 2

>  <source_rank_in_scored_call>  (10) 
1

>  <source_current_task>  (10) 
close_aromatic_ring

>  <rotatable_bond_torsions>  (10) 
1,0,2,3;0,2,3,4

>  <scenario>  (10) 
0 2

>  <reason_to_skip>  (10) 
some_atom_counter_exceeded

$$$$

     RDKit          3D

  6  5  0  0  0  0  0  0  0  0999 V2000
  -27.5730   -7.6020  -31.6140 C   0  0  0  0  0  0  0  0  0  0  0  0
  -27.7350   -7.1890  -32.9030 N   0  0  0  0  0  0  0  0  0  0  0  0
  -27.7090   -8.9660  -31.3170 N   0  0  0  0  0  0  0  0  0  0  0  0
  -28.5910   -9.8860  -31.8790 C   0  0  0  0  0  0  0  0  0  0  0  0
  -28.2400  -11.2270  -31.7890 C   0  0  0  0  0  0  0  0  0  0  0  0
  -29.2612  -11.9525  -32.4274 N   0  0  0  0  0  0  0  0  0  0  0  0
  1  2  2  0
  1  3  1  0
  3  4  1  0
  4  5  1  0
  5  6  2  0
M  END
>  <name>  (11) 
Car Nac Nd0 Car Car Nac

>  <indices>  (11) 
[0, 1, 2]

>  <dummy>  (11) 
1

>  <tasks>  (11) 
probe_placing close_aromatic_ring close_aromatic_ring

>  <current_task>  (11) 
close_aromatic_ring

>  <prot_clashes>  (11) 
3

>  <NBS phar>  (11) 
0.2

>  <NBS_non-phar>  (11) 
0.757138729095459

>  <NBS>  (11) 
0.9571387290954589

>  <source_stage>  (11) 
scored

>  <source_iter>  (11) 
2

>  <source_parent_mol>  (11) 
2

>  <source_scenario>  (11) 
0 2

>  <source_rank_in_scored_call>  (11) 
1

>  <source_current_task>  (11) 
close_aromatic_ring

>  <rotatable_bond_torsions>  (11) 
1,0,2,3;0,2,3,4

>  <scenario>  (11) 
0 2

>  <reason_to_skip>  (11) 
incorrect arom ring closing

$$$$

     RDKit          3D

  6  5  0  0  0  0  0  0  0  0999 V2000
  -27.5730   -7.6020  -31.6140 C   0  0  0  0  0  0  0  0  0  0  0  0
  -27.7350   -7.1890  -32.9030 N   0  0  0  0  0  0  0  0  0  0  0  0
  -27.7090   -8.9660  -31.3170 N   0  0  0  0  0  0  0  0  0  0  0  0
  -28.5910   -9.8860  -31.8790 C   0  0  0  0  0  0  0  0  0  0  0  0
  -28.2400  -11.2270  -31.7890 C   0  0  0  0  0  0  0  0  0  0  0  0
  -28.8279  -12.3951  -32.2077 N   0  0  0  0  0  0  0  0  0  0  0  0
  1  2  2  0
  1  3  1  0
  3  4  1  0
  4  5  1  0
  5  6  1  0
M  END
>  <name>  (12) 
Car Nac Nd0 Car Car Nd0

>  <indices>  (12) 
[0, 1, 2]

>  <dummy>  (12) 
1

>  <tasks>  (12) 
probe_placing close_aromatic_ring close_aromatic_ring

>  <current_task>  (12) 
close_aromatic_ring

>  <prot_clashes>  (12) 
3

>  <NBS phar>  (12) 
0.2

>  <NBS_non-phar>  (12) 
0.757138729095459

>  <NBS>  (12) 
0.9571387290954589

>  <source_stage>  (12) 
scored

>  <source_iter>  (12) 
2

>  <source_parent_mol>  (12) 
2

>  <source_scenario>  (12) 
0 2

>  <source_rank_in_scored_call>  (12) 
1

>  <source_current_task>  (12) 
close_aromatic_ring

>  <rotatable_bond_torsions>  (12) 
1,0,2,3;0,2,3,4

>  <scenario>  (12) 
0 2

>  <reason_to_skip>  (12) 
incorrect arom ring closing

$$$$

     RDKit          3D

  6  5  0  0  0  0  0  0  0  0999 V2000
  -27.5730   -7.6020  -31.6140 C   0  0  0  0  0  0  0  0  0  0  0  0
  -27.7350   -7.1890  -32.9030 N   0  0  0  0  0  0  0  0  0  0  0  0
  -27.7090   -8.9660  -31.3170 N   0  0  0  0  0  0  0  0  0  0  0  0
  -28.5910   -9.8860  -31.8790 C   0  0  0  0  0  0  0  0  0  0  0  0
  -28.2400  -11.2270  -31.7890 C   0  0  0  0  0  0  0  0  0  0  0  0
  -29.1035  -12.1948  -32.3305 N   0  0  0  0  0  0  0  0  0  0  0  0
  1  2  2  0
  1  3  1  0
  3  4  1  0
  4  5  1  0
  5  6  1  0
M  END
>  <name>  (13) 
Car Nac Nd0 Car Car Nac

>  <indices>  (13) 
[0, 1, 2]

>  <dummy>  (13) 
1

>  <tasks>  (13) 
probe_placing close_aromatic_ring close_aromatic_ring

>  <current_task>  (13) 
close_aromatic_ring

>  <prot_clashes>  (13) 
3

>  <NBS phar>  (13) 
0.2

>  <NBS_non-phar>  (13) 
0.757138729095459

>  <NBS>  (13) 
0.9571387290954589

>  <source_stage>  (13) 
scored

>  <source_iter>  (13) 
2

>  <source_parent_mol>  (13) 
2

>  <source_scenario>  (13) 
0 2

>  <source_rank_in_scored_call>  (13) 
1

>  <source_current_task>  (13) 
close_aromatic_ring

>  <rotatable_bond_torsions>  (13) 
1,0,2,3;0,2,3,4

>  <scenario>  (13) 
0 2

>  <reason_to_skip>  (13) 
incorrect arom ring closing

$$$$

     RDKit          3D

  6  5  0  0  0  0  0  0  0  0999 V2000
  -27.5730   -7.6020  -31.6140 C   0  0  0  0  0  0  0  0  0  0  0  0
  -27.7350   -7.1890  -32.9030 N   0  0  0  0  0  0  0  0  0  0  0  0
  -27.7090   -8.9660  -31.3170 N   0  0  0  0  0  0  0  0  0  0  0  0
  -28.5910   -9.8860  -31.8790 C   0  0  0  0  0  0  0  0  0  0  0  0
  -28.2400  -11.2270  -31.7890 C   0  0  0  0  0  0  0  0  0  0  0  0
    0.0000    0.0000    0.0000 O   0  0  0  0  0  0  0  0  0  0  0  0
  1  2  2  0
  1  3  1  0
  3  4  1  0
  4  5  1  0
  5  6  1  0
M  END
>  <name>  (14) 
Car Nac Nd0 Car Car O_a

>  <indices>  (14) 
[0, 1, 2]

>  <dummy>  (14) 
1

>  <tasks>  (14) 
probe_placing close_aromatic_ring close_aromatic_ring

>  <current_task>  (14) 
close_aromatic_ring

>  <prot_clashes>  (14) 
3

>  <NBS phar>  (14) 
0.2

>  <NBS_non-phar>  (14) 
0.757138729095459

>  <NBS>  (14) 
0.9571387290954589

>  <source_stage>  (14) 
scored

>  <source_iter>  (14) 
2

>  <source_parent_mol>  (14) 
2

>  <source_scenario>  (14) 
0 2

>  <source_rank_in_scored_call>  (14) 
1

>  <source_current_task>  (14) 
close_aromatic_ring

>  <rotatable_bond_torsions>  (14) 
1,0,2,3;0,2,3,4

>  <scenario>  (14) 
0 2

>  <reason_to_skip>  (14) 
some_atom_counter_exceeded

$$$$

     RDKit          3D

  6  5  0  0  0  0  0  0  0  0999 V2000
  -27.5730   -7.6020  -31.6140 C   0  0  0  0  0  0  0  0  0  0  0  0
  -27.7350   -7.1890  -32.9030 N   0  0  0  0  0  0  0  0  0  0  0  0
  -27.7090   -8.9660  -31.3170 N   0  0  0  0  0  0  0  0  0  0  0  0
  -28.5910   -9.8860  -31.8790 C   0  0  0  0  0  0  0  0  0  0  0  0
  -28.2400  -11.2270  -31.7890 C   0  0  0  0  0  0  0  0  0  0  0  0
  -28.9009  -11.8942  -30.7209 C   0  0  0  0  0  0  0  0  0  0  0  0
  1  2  2  0
  1  3  1  0
  3  4  1  0
  4  5  1  0
  5  6  1  0
M  END
>  <name>  (15) 
Car Nac Nd0 Car Car Car

>  <indices>  (15) 
[0, 1, 2]

>  <dummy>  (15) 
1

>  <tasks>  (15) 
probe_placing close_aromatic_ring close_aromatic_ring

>  <current_task>  (15) 
close_aromatic_ring

>  <prot_clashes>  (15) 
3

>  <NBS phar>  (15) 
0.2

>  <NBS_non-phar>  (15) 
0.757138729095459

>  <NBS>  (15) 
0.9571387290954589

>  <source_stage>  (15) 
scored

>  <source_iter>  (15) 
2

>  <source_parent_mol>  (15) 
2

>  <source_scenario>  (15) 
0 2

>  <source_rank_in_scored_call>  (15) 
1

>  <source_current_task>  (15) 
close_aromatic_ring

>  <rotatable_bond_torsions>  (15) 
1,0,2,3;0,2,3,4

>  <scenario>  (15) 
0 2

>  <reason_to_skip>  (15) 
incorrect arom ring closing

$$$$

     RDKit          3D

  6  5  0  0  0  0  0  0  0  0999 V2000
  -27.5730   -7.6020  -31.6140 C   0  0  0  0  0  0  0  0  0  0  0  0
  -27.7350   -7.1890  -32.9030 N   0  0  0  0  0  0  0  0  0  0  0  0
  -27.7090   -8.9660  -31.3170 N   0  0  0  0  0  0  0  0  0  0  0  0
  -28.5910   -9.8860  -31.8790 C   0  0  0  0  0  0  0  0  0  0  0  0
  -28.2400  -11.2270  -31.7890 C   0  0  0  0  0  0  0  0  0  0  0  0
  -27.1197  -11.6344  -31.1734 N   0  0  0  0  0  0  0  0  0  0  0  0
  1  2  2  0
  1  3  1  0
  3  4  1  0
  4  5  1  0
  5  6  1  0
M  END
>  <name>  (16) 
Car Nac Nd0 Car Car Nd0

>  <indices>  (16) 
[0, 1, 2]

>  <dummy>  (16) 
1

>  <tasks>  (16) 
probe_placing close_aromatic_ring close_aromatic_ring

>  <current_task>  (16) 
close_aromatic_ring

>  <prot_clashes>  (16) 
3

>  <NBS phar>  (16) 
0.2

>  <NBS_non-phar>  (16) 
0.757138729095459

>  <NBS>  (16) 
0.9571387290954589

>  <source_stage>  (16) 
scored

>  <source_iter>  (16) 
2

>  <source_parent_mol>  (16) 
2

>  <source_scenario>  (16) 
0 2

>  <source_rank_in_scored_call>  (16) 
1

>  <source_current_task>  (16) 
close_aromatic_ring

>  <rotatable_bond_torsions>  (16) 
1,0,2,3;0,2,3,4

>  <scenario>  (16) 
0 2

>  <reason_to_skip>  (16) 
intramol repulsion

$$$$

     RDKit          3D

  6  5  0  0  0  0  0  0  0  0999 V2000
  -27.5730   -7.6020  -31.6140 C   0  0  0  0  0  0  0  0  0  0  0  0
  -27.7350   -7.1890  -32.9030 N   0  0  0  0  0  0  0  0  0  0  0  0
  -27.7090   -8.9660  -31.3170 N   0  0  0  0  0  0  0  0  0  0  0  0
  -28.5910   -9.8860  -31.8790 C   0  0  0  0  0  0  0  0  0  0  0  0
  -28.2400  -11.2270  -31.7890 C   0  0  0  0  0  0  0  0  0  0  0  0
  -29.0860  -12.1272  -32.3097 N   0  0  0  0  0  0  0  0  0  0  0  0
  1  2  2  0
  1  3  1  0
  3  4  1  0
  4  5  1  0
  5  6  1  0
M  END
>  <name>  (17) 
Car Nac Nd0 Car Car Nd0

>  <indices>  (17) 
[0, 1, 2]

>  <dummy>  (17) 
1

>  <tasks>  (17) 
probe_placing close_aromatic_ring close_aromatic_ring

>  <current_task>  (17) 
close_aromatic_ring

>  <prot_clashes>  (17) 
3

>  <NBS phar>  (17) 
0.2

>  <NBS_non-phar>  (17) 
0.757138729095459

>  <NBS>  (17) 
0.9571387290954589

>  <source_stage>  (17) 
scored

>  <source_iter>  (17) 
2

>  <source_parent_mol>  (17) 
2

>  <source_scenario>  (17) 
0 2

>  <source_rank_in_scored_call>  (17) 
1

>  <source_current_task>  (17) 
close_aromatic_ring

>  <rotatable_bond_torsions>  (17) 
1,0,2,3;0,2,3,4

>  <scenario>  (17) 
0 2

>  <reason_to_skip>  (17) 
incorrect arom ring closing

$$$$

     RDKit          3D

  6  5  0  0  0  0  0  0  0  0999 V2000
  -27.5730   -7.6020  -31.6140 C   0  0  0  0  0  0  0  0  0  0  0  0
  -27.7350   -7.1890  -32.9030 N   0  0  0  0  0  0  0  0  0  0  0  0
  -27.7090   -8.9660  -31.3170 N   0  0  0  0  0  0  0  0  0  0  0  0
  -28.5910   -9.8860  -31.8790 C   0  0  0  0  0  0  0  0  0  0  0  0
  -28.2400  -11.2270  -31.7890 C   0  0  0  0  0  0  0  0  0  0  0  0
    0.0000    0.0000    0.0000 S   0  0  0  0  0  0  0  0  0  0  0  0
  1  2  2  0
  1  3  1  0
  3  4  1  0
  4  5  1  0
  5  6  1  0
M  END
>  <name>  (18) 
Car Nac Nd0 Car Car Sul

>  <indices>  (18) 
[0, 1, 2]

>  <dummy>  (18) 
1

>  <tasks>  (18) 
probe_placing close_aromatic_ring close_aromatic_ring

>  <current_task>  (18) 
close_aromatic_ring

>  <prot_clashes>  (18) 
3

>  <NBS phar>  (18) 
0.2

>  <NBS_non-phar>  (18) 
0.757138729095459

>  <NBS>  (18) 
0.9571387290954589

>  <source_stage>  (18) 
scored

>  <source_iter>  (18) 
2

>  <source_parent_mol>  (18) 
2

>  <source_scenario>  (18) 
0 2

>  <source_rank_in_scored_call>  (18) 
1

>  <source_current_task>  (18) 
close_aromatic_ring

>  <rotatable_bond_torsions>  (18) 
1,0,2,3;0,2,3,4

>  <scenario>  (18) 
0 2

>  <reason_to_skip>  (18) 
some_atom_counter_exceeded

$$$$

     RDKit          3D

  6  5  0  0  0  0  0  0  0  0999 V2000
  -27.5730   -7.6020  -31.6140 C   0  0  0  0  0  0  0  0  0  0  0  0
  -27.7350   -7.1890  -32.9030 N   0  0  0  0  0  0  0  0  0  0  0  0
  -27.7090   -8.9660  -31.3170 N   0  0  0  0  0  0  0  0  0  0  0  0
  -28.5910   -9.8860  -31.8790 C   0  0  0  0  0  0  0  0  0  0  0  0
  -28.2400  -11.2270  -31.7890 C   0  0  0  0  0  0  0  0  0  0  0  0
  -28.9307  -12.1741  -30.9207 C   0  0  0  0  0  0  0  0  0  0  0  0
  1  2  2  0
  1  3  1  0
  3  4  1  0
  4  5  1  0
  5  6  1  0
M  END
>  <name>  (19) 
Car Nac Nd0 Car Car Car

>  <indices>  (19) 
[0, 1, 2]

>  <dummy>  (19) 
1

>  <tasks>  (19) 
probe_placing close_aromatic_ring close_aromatic_ring

>  <current_task>  (19) 
close_aromatic_ring

>  <prot_clashes>  (19) 
3

>  <NBS phar>  (19) 
0.2

>  <NBS_non-phar>  (19) 
0.757138729095459

>  <NBS>  (19) 
0.9571387290954589

>  <source_stage>  (19) 
scored

>  <source_iter>  (19) 
2

>  <source_parent_mol>  (19) 
2

>  <source_scenario>  (19) 
0 2

>  <source_rank_in_scored_call>  (19) 
1

>  <source_current_task>  (19) 
close_aromatic_ring

>  <rotatable_bond_torsions>  (19) 
1,0,2,3;0,2,3,4

>  <scenario>  (19) 
0 2

>  <reason_to_skip>  (19) 
incorrect arom ring closing

$$$$

     RDKit          3D

  6  5  0  0  0  0  0  0  0  0999 V2000
  -27.5730   -7.6020  -31.6140 C   0  0  0  0  0  0  0  0  0  0  0  0
  -27.7350   -7.1890  -32.9030 N   0  0  0  0  0  0  0  0  0  0  0  0
  -27.7090   -8.9660  -31.3170 N   0  0  0  0  0  0  0  0  0  0  0  0
  -28.5910   -9.8860  -31.8790 C   0  0  0  0  0  0  0  0  0  0  0  0
  -28.2400  -11.2270  -31.7890 C   0  0  0  0  0  0  0  0  0  0  0  0
  -27.2848  -11.9535  -31.2648 N   0  0  0  0  0  0  0  0  0  0  0  0
  1  2  2  0
  1  3  1  0
  3  4  1  0
  4  5  1  0
  5  6  1  0
M  END
>  <name>  (20) 
Car Nac Nd0 Car Car Nd0

>  <indices>  (20) 
[0, 1, 2]

>  <dummy>  (20) 
1

>  <tasks>  (20) 
probe_placing close_aromatic_ring close_aromatic_ring

>  <current_task>  (20) 
close_aromatic_ring

>  <prot_clashes>  (20) 
3

>  <NBS phar>  (20) 
0.2

>  <NBS_non-phar>  (20) 
0.757138729095459

>  <NBS>  (20) 
0.9571387290954589

>  <source_stage>  (20) 
scored

>  <source_iter>  (20) 
2

>  <source_parent_mol>  (20) 
2

>  <source_scenario>  (20) 
0 2

>  <source_rank_in_scored_call>  (20) 
1

>  <source_current_task>  (20) 
close_aromatic_ring

>  <rotatable_bond_torsions>  (20) 
1,0,2,3;0,2,3,4

>  <scenario>  (20) 
0 2

>  <reason_to_skip>  (20) 
bad angles

$$$$

     RDKit          3D

  6  5  0  0  0  0  0  0  0  0999 V2000
  -27.5730   -7.6020  -31.6140 C   0  0  0  0  0  0  0  0  0  0  0  0
  -27.7350   -7.1890  -32.9030 N   0  0  0  0  0  0  0  0  0  0  0  0
  -27.7090   -8.9660  -31.3170 N   0  0  0  0  0  0  0  0  0  0  0  0
  -28.5910   -9.8860  -31.8790 C   0  0  0  0  0  0  0  0  0  0  0  0
  -28.2400  -11.2270  -31.7890 C   0  0  0  0  0  0  0  0  0  0  0  0
    0.0000    0.0000    0.0000 O   0  0  0  0  0  0  0  0  0  0  0  0
  1  2  2  0
  1  3  1  0
  3  4  1  0
  4  5  1  0
  5  6  1  0
M  END
>  <name>  (21) 
Car Nac Nd0 Car Car O_a

>  <indices>  (21) 
[0, 1, 2]

>  <dummy>  (21) 
1

>  <tasks>  (21) 
probe_placing close_aromatic_ring close_aromatic_ring

>  <current_task>  (21) 
close_aromatic_ring

>  <prot_clashes>  (21) 
3

>  <NBS phar>  (21) 
0.2

>  <NBS_non-phar>  (21) 
0.757138729095459

>  <NBS>  (21) 
0.9571387290954589

>  <source_stage>  (21) 
scored

>  <source_iter>  (21) 
2

>  <source_parent_mol>  (21) 
2

>  <source_scenario>  (21) 
0 2

>  <source_rank_in_scored_call>  (21) 
1

>  <source_current_task>  (21) 
close_aromatic_ring

>  <rotatable_bond_torsions>  (21) 
1,0,2,3;0,2,3,4

>  <scenario>  (21) 
0 2

>  <reason_to_skip>  (21) 
some_atom_counter_exceeded

$$$$

     RDKit          3D

  6  5  0  0  0  0  0  0  0  0999 V2000
  -27.5730   -7.6020  -31.6140 C   0  0  0  0  0  0  0  0  0  0  0  0
  -27.7350   -7.1890  -32.9030 N   0  0  0  0  0  0  0  0  0  0  0  0
  -27.7090   -8.9660  -31.3170 N   0  0  0  0  0  0  0  0  0  0  0  0
  -28.5910   -9.8860  -31.8790 C   0  0  0  0  0  0  0  0  0  0  0  0
  -28.2400  -11.2270  -31.7890 C   0  0  0  0  0  0  0  0  0  0  0  0
    0.0000    0.0000    0.0000 S   0  0  0  0  0  0  0  0  0  0  0  0
  1  2  2  0
  1  3  1  0
  3  4  1  0
  4  5  1  0
  5  6  1  0
M  END
>  <name>  (22) 
Car Nac Nd0 Car Car Sul

>  <indices>  (22) 
[0, 1, 2]

>  <dummy>  (22) 
1

>  <tasks>  (22) 
probe_placing close_aromatic_ring close_aromatic_ring

>  <current_task>  (22) 
close_aromatic_ring

>  <prot_clashes>  (22) 
3

>  <NBS phar>  (22) 
0.2

>  <NBS_non-phar>  (22) 
0.757138729095459

>  <NBS>  (22) 
0.9571387290954589

>  <source_stage>  (22) 
scored

>  <source_iter>  (22) 
2

>  <source_parent_mol>  (22) 
2

>  <source_scenario>  (22) 
0 2

>  <source_rank_in_scored_call>  (22) 
1

>  <source_current_task>  (22) 
close_aromatic_ring

>  <rotatable_bond_torsions>  (22) 
1,0,2,3;0,2,3,4

>  <scenario>  (22) 
0 2

>  <reason_to_skip>  (22) 
some_atom_counter_exceeded

$$$$

     RDKit          3D

  6  5  0  0  0  0  0  0  0  0999 V2000
  -27.5730   -7.6020  -31.6140 C   0  0  0  0  0  0  0  0  0  0  0  0
  -27.7350   -7.1890  -32.9030 N   0  0  0  0  0  0  0  0  0  0  0  0
  -27.7090   -8.9660  -31.3170 N   0  0  0  0  0  0  0  0  0  0  0  0
  -28.5910   -9.8860  -31.8790 C   0  0  0  0  0  0  0  0  0  0  0  0
  -28.2400  -11.2270  -31.7890 C   0  0  0  0  0  0  0  0  0  0  0  0
    0.0000    0.0000    0.0000 S   0  0  0  0  0  0  0  0  0  0  0  0
  1  2  2  0
  1  3  1  0
  3  4  1  0
  4  5  1  0
  5  6  1  0
M  END
>  <name>  (23) 
Car Nac Nd0 Car Car Sul

>  <indices>  (23) 
[0, 1, 2]

>  <dummy>  (23) 
1

>  <tasks>  (23) 
probe_placing close_aromatic_ring close_aromatic_ring

>  <current_task>  (23) 
close_aromatic_ring

>  <prot_clashes>  (23) 
3

>  <NBS phar>  (23) 
0.2

>  <NBS_non-phar>  (23) 
0.757138729095459

>  <NBS>  (23) 
0.9571387290954589

>  <source_stage>  (23) 
scored

>  <source_iter>  (23) 
2

>  <source_parent_mol>  (23) 
2

>  <source_scenario>  (23) 
0 2

>  <source_rank_in_scored_call>  (23) 
1

>  <source_current_task>  (23) 
close_aromatic_ring

>  <rotatable_bond_torsions>  (23) 
1,0,2,3;0,2,3,4

>  <scenario>  (23) 
0 2

>  <reason_to_skip>  (23) 
some_atom_counter_exceeded

$$$$

     RDKit          3D

  6  5  0  0  0  0  0  0  0  0999 V2000
  -27.5730   -7.6020  -31.6140 C   0  0  0  0  0  0  0  0  0  0  0  0
  -27.7350   -7.1890  -32.9030 N   0  0  0  0  0  0  0  0  0  0  0  0
  -27.7090   -8.9660  -31.3170 N   0  0  0  0  0  0  0  0  0  0  0  0
  -28.5910   -9.8860  -31.8790 C   0  0  0  0  0  0  0  0  0  0  0  0
  -28.2400  -11.2270  -31.7890 C   0  0  0  0  0  0  0  0  0  0  0  0
  -28.0073  -11.8746  -32.9943 C   0  0  0  0  0  0  0  0  0  0  0  0
  1  2  2  0
  1  3  1  0
  3  4  1  0
  4  5  1  0
  5  6  2  0
M  END
>  <name>  (24) 
Car Nac Nd0 Car Car Car

>  <indices>  (24) 
[0, 1, 2]

>  <dummy>  (24) 
1

>  <tasks>  (24) 
probe_placing close_aromatic_ring close_aromatic_ring

>  <current_task>  (24) 
close_aromatic_ring

>  <prot_clashes>  (24) 
3

>  <NBS phar>  (24) 
0.2

>  <NBS_non-phar>  (24) 
0.757138729095459

>  <NBS>  (24) 
0.9571387290954589

>  <source_stage>  (24) 
scored

>  <source_iter>  (24) 
2

>  <source_parent_mol>  (24) 
2

>  <source_scenario>  (24) 
0 2

>  <source_rank_in_scored_call>  (24) 
1

>  <source_current_task>  (24) 
close_aromatic_ring

>  <rotatable_bond_torsions>  (24) 
1,0,2,3;0,2,3,4

>  <scenario>  (24) 
0 2

>  <reason_to_skip>  (24) 
incorrect arom ring closing

$$$$

     RDKit          3D

  6  5  0  0  0  0  0  0  0  0999 V2000
  -27.5730   -7.6020  -31.6140 C   0  0  0  0  0  0  0  0  0  0  0  0
  -27.7350   -7.1890  -32.9030 N   0  0  0  0  0  0  0  0  0  0  0  0
  -27.7090   -8.9660  -31.3170 N   0  0  0  0  0  0  0  0  0  0  0  0
  -28.5910   -9.8860  -31.8790 C   0  0  0  0  0  0  0  0  0  0  0  0
  -28.2400  -11.2270  -31.7890 C   0  0  0  0  0  0  0  0  0  0  0  0
    0.0000    0.0000    0.0000 S   0  0  0  0  0  0  0  0  0  0  0  0
  1  2  2  0
  1  3  1  0
  3  4  1  0
  4  5  1  0
  5  6  1  0
M  END
>  <name>  (25) 
Car Nac Nd0 Car Car Sul

>  <indices>  (25) 
[0, 1, 2]

>  <dummy>  (25) 
1

>  <tasks>  (25) 
probe_placing close_aromatic_ring close_aromatic_ring

>  <current_task>  (25) 
close_aromatic_ring

>  <prot_clashes>  (25) 
3

>  <NBS phar>  (25) 
0.2

>  <NBS_non-phar>  (25) 
0.757138729095459

>  <NBS>  (25) 
0.9571387290954589

>  <source_stage>  (25) 
scored

>  <source_iter>  (25) 
2

>  <source_parent_mol>  (25) 
2

>  <source_scenario>  (25) 
0 2

>  <source_rank_in_scored_call>  (25) 
1

>  <source_current_task>  (25) 
close_aromatic_ring

>  <rotatable_bond_torsions>  (25) 
1,0,2,3;0,2,3,4

>  <scenario>  (25) 
0 2

>  <reason_to_skip>  (25) 
some_atom_counter_exceeded

$$$$

     RDKit          3D

  6  5  0  0  0  0  0  0  0  0999 V2000
  -27.5730   -7.6020  -31.6140 C   0  0  0  0  0  0  0  0  0  0  0  0
  -27.7350   -7.1890  -32.9030 N   0  0  0  0  0  0  0  0  0  0  0  0
  -27.7090   -8.9660  -31.3170 N   0  0  0  0  0  0  0  0  0  0  0  0
  -28.5910   -9.8860  -31.8790 C   0  0  0  0  0  0  0  0  0  0  0  0
  -28.2400  -11.2270  -31.7890 C   0  0  0  0  0  0  0  0  0  0  0  0
    0.0000    0.0000    0.0000 O   0  0  0  0  0  0  0  0  0  0  0  0
  1  2  2  0
  1  3  1  0
  3  4  1  0
  4  5  1  0
  5  6  1  0
M  END
>  <name>  (26) 
Car Nac Nd0 Car Car O_a

>  <indices>  (26) 
[0, 1, 2]

>  <dummy>  (26) 
1

>  <tasks>  (26) 
probe_placing close_aromatic_ring close_aromatic_ring

>  <current_task>  (26) 
close_aromatic_ring

>  <prot_clashes>  (26) 
3

>  <NBS phar>  (26) 
0.2

>  <NBS_non-phar>  (26) 
0.757138729095459

>  <NBS>  (26) 
0.9571387290954589

>  <source_stage>  (26) 
scored

>  <source_iter>  (26) 
2

>  <source_parent_mol>  (26) 
2

>  <source_scenario>  (26) 
0 2

>  <source_rank_in_scored_call>  (26) 
1

>  <source_current_task>  (26) 
close_aromatic_ring

>  <rotatable_bond_torsions>  (26) 
1,0,2,3;0,2,3,4

>  <scenario>  (26) 
0 2

>  <reason_to_skip>  (26) 
some_atom_counter_exceeded

$$$$

     RDKit          3D

  6  5  0  0  0  0  0  0  0  0999 V2000
  -27.5730   -7.6020  -31.6140 C   0  0  0  0  0  0  0  0  0  0  0  0
  -27.7350   -7.1890  -32.9030 N   0  0  0  0  0  0  0  0  0  0  0  0
  -27.7090   -8.9660  -31.3170 N   0  0  0  0  0  0  0  0  0  0  0  0
  -28.5910   -9.8860  -31.8790 C   0  0  0  0  0  0  0  0  0  0  0  0
  -28.2400  -11.2270  -31.7890 C   0  0  0  0  0  0  0  0  0  0  0  0
    0.0000    0.0000    0.0000 S   0  0  0  0  0  0  0  0  0  0  0  0
  1  2  2  0
  1  3  1  0
  3  4  1  0
  4  5  1  0
  5  6  1  0
M  END
>  <name>  (27) 
Car Nac Nd0 Car Car Sul

>  <indices>  (27) 
[0, 1, 2]

>  <dummy>  (27) 
1

>  <tasks>  (27) 
probe_placing close_aromatic_ring close_aromatic_ring

>  <current_task>  (27) 
close_aromatic_ring

>  <prot_clashes>  (27) 
3

>  <NBS phar>  (27) 
0.2

>  <NBS_non-phar>  (27) 
0.757138729095459

>  <NBS>  (27) 
0.9571387290954589

>  <source_stage>  (27) 
scored

>  <source_iter>  (27) 
2

>  <source_parent_mol>  (27) 
2

>  <source_scenario>  (27) 
0 2

>  <source_rank_in_scored_call>  (27) 
1

>  <source_current_task>  (27) 
close_aromatic_ring

>  <rotatable_bond_torsions>  (27) 
1,0,2,3;0,2,3,4

>  <scenario>  (27) 
0 2

>  <reason_to_skip>  (27) 
some_atom_counter_exceeded

$$$$

     RDKit          3D

  6  5  0  0  0  0  0  0  0  0999 V2000
  -27.5730   -7.6020  -31.6140 C   0  0  0  0  0  0  0  0  0  0  0  0
  -27.7350   -7.1890  -32.9030 N   0  0  0  0  0  0  0  0  0  0  0  0
  -27.7090   -8.9660  -31.3170 N   0  0  0  0  0  0  0  0  0  0  0  0
  -28.5910   -9.8860  -31.8790 C   0  0  0  0  0  0  0  0  0  0  0  0
  -28.2400  -11.2270  -31.7890 C   0  0  0  0  0  0  0  0  0  0  0  0
    0.0000    0.0000    0.0000 S   0  0  0  0  0  0  0  0  0  0  0  0
  1  2  2  0
  1  3  1  0
  3  4  1  0
  4  5  1  0
  5  6  1  0
M  END
>  <name>  (28) 
Car Nac Nd0 Car Car Sul

>  <indices>  (28) 
[0, 1, 2]

>  <dummy>  (28) 
1

>  <tasks>  (28) 
probe_placing close_aromatic_ring close_aromatic_ring

>  <current_task>  (28) 
close_aromatic_ring

>  <prot_clashes>  (28) 
3

>  <NBS phar>  (28) 
0.2

>  <NBS_non-phar>  (28) 
0.757138729095459

>  <NBS>  (28) 
0.9571387290954589

>  <source_stage>  (28) 
scored

>  <source_iter>  (28) 
2

>  <source_parent_mol>  (28) 
2

>  <source_scenario>  (28) 
0 2

>  <source_rank_in_scored_call>  (28) 
1

>  <source_current_task>  (28) 
close_aromatic_ring

>  <rotatable_bond_torsions>  (28) 
1,0,2,3;0,2,3,4

>  <scenario>  (28) 
0 2

>  <reason_to_skip>  (28) 
some_atom_counter_exceeded

$$$$

     RDKit          3D

  6  5  0  0  0  0  0  0  0  0999 V2000
  -27.5730   -7.6020  -31.6140 C   0  0  0  0  0  0  0  0  0  0  0  0
  -27.7350   -7.1890  -32.9030 N   0  0  0  0  0  0  0  0  0  0  0  0
  -27.7090   -8.9660  -31.3170 N   0  0  0  0  0  0  0  0  0  0  0  0
  -28.5910   -9.8860  -31.8790 C   0  0  0  0  0  0  0  0  0  0  0  0
  -28.2400  -11.2270  -31.7890 C   0  0  0  0  0  0  0  0  0  0  0  0
  -28.0721  -12.0026  -32.9632 C   0  0  0  0  0  0  0  0  0  0  0  0
  1  2  2  0
  1  3  1  0
  3  4  1  0
  4  5  1  0
  5  6  1  0
M  END
>  <name>  (29) 
Car Nac Nd0 Car Car Car

>  <indices>  (29) 
[0, 1, 2]

>  <dummy>  (29) 
1

>  <tasks>  (29) 
probe_placing close_aromatic_ring close_aromatic_ring

>  <current_task>  (29) 
close_aromatic_ring

>  <prot_clashes>  (29) 
3

>  <NBS phar>  (29) 
0.2

>  <NBS_non-phar>  (29) 
0.757138729095459

>  <NBS>  (29) 
0.9571387290954589

>  <source_stage>  (29) 
scored

>  <source_iter>  (29) 
2

>  <source_parent_mol>  (29) 
2

>  <source_scenario>  (29) 
0 2

>  <source_rank_in_scored_call>  (29) 
1

>  <source_current_task>  (29) 
close_aromatic_ring

>  <rotatable_bond_torsions>  (29) 
1,0,2,3;0,2,3,4

>  <scenario>  (29) 
0 2

>  <reason_to_skip>  (29) 
incorrect arom ring closing

$$$$

     RDKit          3D

  6  5  0  0  0  0  0  0  0  0999 V2000
  -27.5730   -7.6020  -31.6140 C   0  0  0  0  0  0  0  0  0  0  0  0
  -27.7350   -7.1890  -32.9030 N   0  0  0  0  0  0  0  0  0  0  0  0
  -27.7090   -8.9660  -31.3170 N   0  0  0  0  0  0  0  0  0  0  0  0
  -28.5910   -9.8860  -31.8790 C   0  0  0  0  0  0  0  0  0  0  0  0
  -28.2400  -11.2270  -31.7890 C   0  0  0  0  0  0  0  0  0  0  0  0
  -27.4708  -11.8956  -32.9672 C   0  0  0  0  0  0  0  0  0  0  0  0
  1  2  2  0
  1  3  1  0
  3  4  1  0
  4  5  1  0
  5  6  1  0
M  END
>  <name>  (30) 
Car Nac Nd0 Car Car Car

>  <indices>  (30) 
[0, 1, 2]

>  <dummy>  (30) 
1

>  <tasks>  (30) 
probe_placing close_aromatic_ring close_aromatic_ring

>  <current_task>  (30) 
close_aromatic_ring

>  <prot_clashes>  (30) 
3

>  <NBS phar>  (30) 
0.2

>  <NBS_non-phar>  (30) 
0.757138729095459

>  <NBS>  (30) 
0.9571387290954589

>  <source_stage>  (30) 
scored

>  <source_iter>  (30) 
2

>  <source_parent_mol>  (30) 
2

>  <source_scenario>  (30) 
0 2

>  <source_rank_in_scored_call>  (30) 
1

>  <source_current_task>  (30) 
close_aromatic_ring

>  <rotatable_bond_torsions>  (30) 
1,0,2,3;0,2,3,4

>  <scenario>  (30) 
0 2

>  <reason_to_skip>  (30) 
incorrect arom ring closing

$$$$

     RDKit          3D

  6  5  0  0  0  0  0  0  0  0999 V2000
  -27.5730   -7.6020  -31.6140 C   0  0  0  0  0  0  0  0  0  0  0  0
  -27.7350   -7.1890  -32.9030 N   0  0  0  0  0  0  0  0  0  0  0  0
  -27.7090   -8.9660  -31.3170 N   0  0  0  0  0  0  0  0  0  0  0  0
  -28.5910   -9.8860  -31.8790 C   0  0  0  0  0  0  0  0  0  0  0  0
  -28.2400  -11.2270  -31.7890 C   0  0  0  0  0  0  0  0  0  0  0  0
  -27.0800  -11.7299  -31.1880 C   0  0  0  0  0  0  0  0  0  0  0  0
  1  2  2  0
  1  3  1  0
  3  4  1  0
  4  5  1  0
  5  6  2  0
M  END
>  <name>  (31) 
Car Nac Nd0 Car Car Car

>  <indices>  (31) 
[0, 1, 2]

>  <dummy>  (31) 
1

>  <tasks>  (31) 
probe_placing close_aromatic_ring close_aromatic_ring

>  <current_task>  (31) 
close_aromatic_ring

>  <prot_clashes>  (31) 
3

>  <NBS phar>  (31) 
0.2

>  <NBS_non-phar>  (31) 
0.757138729095459

>  <NBS>  (31) 
0.9571387290954589

>  <source_stage>  (31) 
scored

>  <source_iter>  (31) 
2

>  <source_parent_mol>  (31) 
2

>  <source_scenario>  (31) 
0 2

>  <source_rank_in_scored_call>  (31) 
1

>  <source_current_task>  (31) 
close_aromatic_ring

>  <rotatable_bond_torsions>  (31) 
1,0,2,3;0,2,3,4

>  <scenario>  (31) 
0 2

>  <reason_to_skip>  (31) 
subgraph mismatch

$$$$

     RDKit          3D

  6  5  0  0  0  0  0  0  0  0999 V2000
  -27.5730   -7.6020  -31.6140 C   0  0  0  0  0  0  0  0  0  0  0  0
  -27.7350   -7.1890  -32.9030 N   0  0  0  0  0  0  0  0  0  0  0  0
  -27.7090   -8.9660  -31.3170 N   0  0  0  0  0  0  0  0  0  0  0  0
  -28.5910   -9.8860  -31.8790 C   0  0  0  0  0  0  0  0  0  0  0  0
  -28.2400  -11.2270  -31.7890 C   0  0  0  0  0  0  0  0  0  0  0  0
  -27.1249  -11.7905  -31.2143 C   0  0  0  0  0  0  0  0  0  0  0  0
  1  2  2  0
  1  3  1  0
  3  4  1  0
  4  5  1  0
  5  6  1  0
M  END
>  <name>  (32) 
Car Nac Nd0 Car Car Car

>  <indices>  (32) 
[0, 1, 2]

>  <dummy>  (32) 
1

>  <tasks>  (32) 
probe_placing close_aromatic_ring close_aromatic_ring

>  <current_task>  (32) 
close_aromatic_ring

>  <prot_clashes>  (32) 
3

>  <NBS phar>  (32) 
0.2

>  <NBS_non-phar>  (32) 
0.757138729095459

>  <NBS>  (32) 
0.9571387290954589

>  <source_stage>  (32) 
scored

>  <source_iter>  (32) 
2

>  <source_parent_mol>  (32) 
2

>  <source_scenario>  (32) 
0 2

>  <source_rank_in_scored_call>  (32) 
1

>  <source_current_task>  (32) 
close_aromatic_ring

>  <rotatable_bond_torsions>  (32) 
1,0,2,3;0,2,3,4

>  <scenario>  (32) 
0 2

>  <reason_to_skip>  (32) 
subgraph mismatch

$$$$

     RDKit          3D

  6  5  0  0  0  0  0  0  0  0999 V2000
  -27.5730   -7.6020  -31.6140 C   0  0  0  0  0  0  0  0  0  0  0  0
  -27.7350   -7.1890  -32.9030 N   0  0  0  0  0  0  0  0  0  0  0  0
  -27.7090   -8.9660  -31.3170 N   0  0  0  0  0  0  0  0  0  0  0  0
  -28.5910   -9.8860  -31.8790 C   0  0  0  0  0  0  0  0  0  0  0  0
  -28.2400  -11.2270  -31.7890 C   0  0  0  0  0  0  0  0  0  0  0  0
  -27.0719  -11.6336  -31.2453 N   0  0  0  0  0  0  0  0  0  0  0  0
  1  2  2  0
  1  3  1  0
  3  4  1  0
  4  5  1  0
  5  6  2  0
M  END
>  <name>  (33) 
Car Nac Nd0 Car Car Nac

>  <indices>  (33) 
[0, 1, 2]

>  <dummy>  (33) 
1

>  <tasks>  (33) 
probe_placing close_aromatic_ring close_aromatic_ring

>  <current_task>  (33) 
close_aromatic_ring

>  <prot_clashes>  (33) 
3

>  <NBS phar>  (33) 
0.2

>  <NBS_non-phar>  (33) 
0.757138729095459

>  <NBS>  (33) 
0.9571387290954589

>  <source_stage>  (33) 
scored

>  <source_iter>  (33) 
2

>  <source_parent_mol>  (33) 
2

>  <source_scenario>  (33) 
0 2

>  <source_rank_in_scored_call>  (33) 
1

>  <source_current_task>  (33) 
close_aromatic_ring

>  <rotatable_bond_torsions>  (33) 
1,0,2,3;0,2,3,4

>  <scenario>  (33) 
0 2

>  <reason_to_skip>  (33) 
subgraph mismatch

$$$$

     RDKit          3D

  6  5  0  0  0  0  0  0  0  0999 V2000
  -27.5730   -7.6020  -31.6140 C   0  0  0  0  0  0  0  0  0  0  0  0
  -27.7350   -7.1890  -32.9030 N   0  0  0  0  0  0  0  0  0  0  0  0
  -27.7090   -8.9660  -31.3170 N   0  0  0  0  0  0  0  0  0  0  0  0
  -28.5910   -9.8860  -31.8790 C   0  0  0  0  0  0  0  0  0  0  0  0
  -28.2400  -11.2270  -31.7890 C   0  0  0  0  0  0  0  0  0  0  0  0
  -27.1618  -11.8306  -31.2423 N   0  0  0  0  0  0  0  0  0  0  0  0
  1  2  2  0
  1  3  1  0
  3  4  1  0
  4  5  1  0
  5  6  1  0
M  END
>  <name>  (34) 
Car Nac Nd0 Car Car Nac

>  <indices>  (34) 
[0, 1, 2]

>  <dummy>  (34) 
1

>  <tasks>  (34) 
probe_placing close_aromatic_ring close_aromatic_ring

>  <current_task>  (34) 
close_aromatic_ring

>  <prot_clashes>  (34) 
3

>  <NBS phar>  (34) 
0.2

>  <NBS_non-phar>  (34) 
0.757138729095459

>  <NBS>  (34) 
0.9571387290954589

>  <source_stage>  (34) 
scored

>  <source_iter>  (34) 
2

>  <source_parent_mol>  (34) 
2

>  <source_scenario>  (34) 
0 2

>  <source_rank_in_scored_call>  (34) 
1

>  <source_current_task>  (34) 
close_aromatic_ring

>  <rotatable_bond_torsions>  (34) 
1,0,2,3;0,2,3,4

>  <scenario>  (34) 
0 2

>  <reason_to_skip>  (34) 
subgraph mismatch

$$$$

     RDKit          3D

  6  5  0  0  0  0  0  0  0  0999 V2000
  -27.5370   -7.7530  -31.6270 C   0  0  0  0  0  0  0  0  0  0  0  0
  -27.9570   -7.3140  -32.8470 N   0  0  0  0  0  0  0  0  0  0  0  0
  -27.5840   -9.1260  -31.3460 N   0  0  0  0  0  0  0  0  0  0  0  0
  -28.5420  -10.0540  -31.7480 C   0  0  0  0  0  0  0  0  0  0  0  0
  -29.3470  -10.6720  -30.8060 C   0  0  0  0  0  0  0  0  0  0  0  0
  -30.4646  -11.6322  -31.1944 C   0  0  0  0  0  0  0  0  0  0  0  0
  1  2  2  0
  1  3  1  0
  3  4  1  0
  4  5  2  3
  5  6  1  0
M  END
>  <name>  (1) 
Car Nac Nd0 Car Car Car

>  <indices>  (1) 
[0, 1, 2]

>  <dummy>  (1) 
1

>  <tasks>  (1) 
probe_placing close_aromatic_ring close_aromatic_ring

>  <current_task>  (1) 
close_aromatic_ring

>  <prot_clashes>  (1) 
2

>  <NBS phar>  (1) 
0.2

>  <NBS_non-phar>  (1) 
0.7273970603942871

>  <NBS>  (1) 
0.9273970603942872

>  <source_stage>  (1) 
scored

>  <source_iter>  (1) 
2

>  <source_parent_mol>  (1) 
2

>  <source_scenario>  (1) 
0 2

>  <source_rank_in_scored_call>  (1) 
2

>  <source_current_task>  (1) 
close_aromatic_ring

>  <rotatable_bond_torsions>  (1) 
1,0,2,3;0,2,3,4

>  <scenario>  (1) 
0 2

>  <reason_to_skip>  (1) 
incorrect arom ring closing

$$$$

     RDKit          3D

  6  5  0  0  0  0  0  0  0  0999 V2000
  -27.5370   -7.7530  -31.6270 C   0  0  0  0  0  0  0  0  0  0  0  0
  -27.9570   -7.3140  -32.8470 N   0  0  0  0  0  0  0  0  0  0  0  0
  -27.5840   -9.1260  -31.3460 N   0  0  0  0  0  0  0  0  0  0  0  0
  -28.5420  -10.0540  -31.7480 C   0  0  0  0  0  0  0  0  0  0  0  0
  -29.3470  -10.6720  -30.8060 C   0  0  0  0  0  0  0  0  0  0  0  0
  -29.4855  -10.6207  -29.4307 N   0  0  0  0  0  0  0  0  0  0  0  0
  1  2  2  0
  1  3  1  0
  3  4  1  0
  4  5  2  3
  5  6  1  0
M  END
>  <name>  (2) 
Car Nac Nd0 Car Car Nac

>  <indices>  (2) 
[0, 1, 2]

>  <dummy>  (2) 
1

>  <tasks>  (2) 
probe_placing close_aromatic_ring close_aromatic_ring

>  <current_task>  (2) 
close_aromatic_ring

>  <prot_clashes>  (2) 
2

>  <NBS phar>  (2) 
0.2

>  <NBS_non-phar>  (2) 
0.7273970603942871

>  <NBS>  (2) 
0.9273970603942872

>  <source_stage>  (2) 
scored

>  <source_iter>  (2) 
2

>  <source_parent_mol>  (2) 
2

>  <source_scenario>  (2) 
0 2

>  <source_rank_in_scored_call>  (2) 
2

>  <source_current_task>  (2) 
close_aromatic_ring

>  <rotatable_bond_torsions>  (2) 
1,0,2,3;0,2,3,4

>  <scenario>  (2) 
0 2

>  <reason_to_skip>  (2) 
bad angles

$$$$

     RDKit          3D

  6  5  0  0  0  0  0  0  0  0999 V2000
  -27.5370   -7.7530  -31.6270 C   0  0  0  0  0  0  0  0  0  0  0  0
  -27.9570   -7.3140  -32.8470 N   0  0  0  0  0  0  0  0  0  0  0  0
  -27.5840   -9.1260  -31.3460 N   0  0  0  0  0  0  0  0  0  0  0  0
  -28.5420  -10.0540  -31.7480 C   0  0  0  0  0  0  0  0  0  0  0  0
  -29.3470  -10.6720  -30.8060 C   0  0  0  0  0  0  0  0  0  0  0  0
  -30.1905  -11.4896  -31.5635 N   0  0  0  0  0  0  0  0  0  0  0  0
  1  2  2  0
  1  3  1  0
  3  4  1  0
  4  5  2  3
  5  6  1  0
M  END
>  <name>  (3) 
Car Nac Nd0 Car Car Nac

>  <indices>  (3) 
[0, 1, 2]

>  <dummy>  (3) 
1

>  <tasks>  (3) 
probe_placing close_aromatic_ring close_aromatic_ring

>  <current_task>  (3) 
close_aromatic_ring

>  <prot_clashes>  (3) 
2

>  <NBS phar>  (3) 
0.2

>  <NBS_non-phar>  (3) 
0.7273970603942871

>  <NBS>  (3) 
0.9273970603942872

>  <source_stage>  (3) 
scored

>  <source_iter>  (3) 
2

>  <source_parent_mol>  (3) 
2

>  <source_scenario>  (3) 
0 2

>  <source_rank_in_scored_call>  (3) 
2

>  <source_current_task>  (3) 
close_aromatic_ring

>  <rotatable_bond_torsions>  (3) 
1,0,2,3;0,2,3,4

>  <scenario>  (3) 
0 2

>  <reason_to_skip>  (3) 
incorrect arom ring closing

$$$$

     RDKit          3D

  6  5  0  0  0  0  0  0  0  0999 V2000
  -27.5370   -7.7530  -31.6270 C   0  0  0  0  0  0  0  0  0  0  0  0
  -27.9570   -7.3140  -32.8470 N   0  0  0  0  0  0  0  0  0  0  0  0
  -27.5840   -9.1260  -31.3460 N   0  0  0  0  0  0  0  0  0  0  0  0
  -28.5420  -10.0540  -31.7480 C   0  0  0  0  0  0  0  0  0  0  0  0
  -29.3470  -10.6720  -30.8060 C   0  0  0  0  0  0  0  0  0  0  0  0
  -29.4969  -10.5866  -29.3574 C   0  0  0  0  0  0  0  0  0  0  0  0
  1  2  2  0
  1  3  1  0
  3  4  1  0
  4  5  2  3
  5  6  1  0
M  END
>  <name>  (4) 
Car Nac Nd0 Car Car Car

>  <indices>  (4) 
[0, 1, 2]

>  <dummy>  (4) 
1

>  <tasks>  (4) 
probe_placing close_aromatic_ring close_aromatic_ring

>  <current_task>  (4) 
close_aromatic_ring

>  <prot_clashes>  (4) 
2

>  <NBS phar>  (4) 
0.2

>  <NBS_non-phar>  (4) 
0.7273970603942871

>  <NBS>  (4) 
0.9273970603942872

>  <source_stage>  (4) 
scored

>  <source_iter>  (4) 
2

>  <source_parent_mol>  (4) 
2

>  <source_scenario>  (4) 
0 2

>  <source_rank_in_scored_call>  (4) 
2

>  <source_current_task>  (4) 
close_aromatic_ring

>  <rotatable_bond_torsions>  (4) 
1,0,2,3;0,2,3,4

>  <scenario>  (4) 
0 2

>  <reason_to_skip>  (4) 
bad angles

$$$$

     RDKit          3D

  6  5  0  0  0  0  0  0  0  0999 V2000
  -27.5370   -7.7530  -31.6270 C   0  0  0  0  0  0  0  0  0  0  0  0
  -27.9570   -7.3140  -32.8470 N   0  0  0  0  0  0  0  0  0  0  0  0
  -27.5840   -9.1260  -31.3460 N   0  0  0  0  0  0  0  0  0  0  0  0
  -28.5420  -10.0540  -31.7480 C   0  0  0  0  0  0  0  0  0  0  0  0
  -29.3470  -10.6720  -30.8060 C   0  0  0  0  0  0  0  0  0  0  0  0
  -30.3004  -11.6189  -31.2484 C   0  0  0  0  0  0  0  0  0  0  0  0
  1  2  2  0
  1  3  1  0
  3  4  1  0
  4  5  2  3
  5  6  1  0
M  END
>  <name>  (5) 
Car Nac Nd0 Car Car Car

>  <indices>  (5) 
[0, 1, 2]

>  <dummy>  (5) 
1

>  <tasks>  (5) 
probe_placing close_aromatic_ring close_aromatic_ring

>  <current_task>  (5) 
close_aromatic_ring

>  <prot_clashes>  (5) 
2

>  <NBS phar>  (5) 
0.2

>  <NBS_non-phar>  (5) 
0.7273970603942871

>  <NBS>  (5) 
0.9273970603942872

>  <source_stage>  (5) 
scored

>  <source_iter>  (5) 
2

>  <source_parent_mol>  (5) 
2

>  <source_scenario>  (5) 
0 2

>  <source_rank_in_scored_call>  (5) 
2

>  <source_current_task>  (5) 
close_aromatic_ring

>  <rotatable_bond_torsions>  (5) 
1,0,2,3;0,2,3,4

>  <scenario>  (5) 
0 2

>  <reason_to_skip>  (5) 
incorrect arom ring closing

$$$$

     RDKit          3D

  6  5  0  0  0  0  0  0  0  0999 V2000
  -27.5370   -7.7530  -31.6270 C   0  0  0  0  0  0  0  0  0  0  0  0
  -27.9570   -7.3140  -32.8470 N   0  0  0  0  0  0  0  0  0  0  0  0
  -27.5840   -9.1260  -31.3460 N   0  0  0  0  0  0  0  0  0  0  0  0
  -28.5420  -10.0540  -31.7480 C   0  0  0  0  0  0  0  0  0  0  0  0
  -29.3470  -10.6720  -30.8060 C   0  0  0  0  0  0  0  0  0  0  0  0
  -28.8626  -10.0922  -29.5989 N   0  0  0  0  0  0  0  0  0  0  0  0
  1  2  2  0
  1  3  1  0
  3  4  1  0
  4  5  2  3
  5  6  1  0
M  END
>  <name>  (6) 
Car Nac Nd0 Car Car Nac

>  <indices>  (6) 
[0, 1, 2]

>  <dummy>  (6) 
1

>  <tasks>  (6) 
probe_placing close_aromatic_ring close_aromatic_ring

>  <current_task>  (6) 
close_aromatic_ring

>  <prot_clashes>  (6) 
2

>  <NBS phar>  (6) 
0.2

>  <NBS_non-phar>  (6) 
0.7273970603942871

>  <NBS>  (6) 
0.9273970603942872

>  <source_stage>  (6) 
scored

>  <source_iter>  (6) 
2

>  <source_parent_mol>  (6) 
2

>  <source_scenario>  (6) 
0 2

>  <source_rank_in_scored_call>  (6) 
2

>  <source_current_task>  (6) 
close_aromatic_ring

>  <rotatable_bond_torsions>  (6) 
1,0,2,3;0,2,3,4

>  <scenario>  (6) 
0 2

>  <reason_to_skip>  (6) 
incorrect arom ring closing

$$$$

     RDKit          3D

  6  5  0  0  0  0  0  0  0  0999 V2000
  -27.5370   -7.7530  -31.6270 C   0  0  0  0  0  0  0  0  0  0  0  0
  -27.9570   -7.3140  -32.8470 N   0  0  0  0  0  0  0  0  0  0  0  0
  -27.5840   -9.1260  -31.3460 N   0  0  0  0  0  0  0  0  0  0  0  0
  -28.5420  -10.0540  -31.7480 C   0  0  0  0  0  0  0  0  0  0  0  0
  -29.3470  -10.6720  -30.8060 C   0  0  0  0  0  0  0  0  0  0  0  0
  -28.8679  -10.0589  -29.5930 C   0  0  0  0  0  0  0  0  0  0  0  0
  1  2  2  0
  1  3  1  0
  3  4  1  0
  4  5  2  3
  5  6  1  0
M  END
>  <name>  (7) 
Car Nac Nd0 Car Car Car

>  <indices>  (7) 
[0, 1, 2]

>  <dummy>  (7) 
1

>  <tasks>  (7) 
probe_placing close_aromatic_ring close_aromatic_ring

>  <current_task>  (7) 
close_aromatic_ring

>  <prot_clashes>  (7) 
2

>  <NBS phar>  (7) 
0.2

>  <NBS_non-phar>  (7) 
0.7273970603942871

>  <NBS>  (7) 
0.9273970603942872

>  <source_stage>  (7) 
scored

>  <source_iter>  (7) 
2

>  <source_parent_mol>  (7) 
2

>  <source_scenario>  (7) 
0 2

>  <source_rank_in_scored_call>  (7) 
2

>  <source_current_task>  (7) 
close_aromatic_ring

>  <rotatable_bond_torsions>  (7) 
1,0,2,3;0,2,3,4

>  <scenario>  (7) 
0 2

>  <reason_to_skip>  (7) 
incorrect arom ring closing

$$$$

     RDKit          3D

  6  5  0  0  0  0  0  0  0  0999 V2000
  -27.5370   -7.7530  -31.6270 C   0  0  0  0  0  0  0  0  0  0  0  0
  -27.9570   -7.3140  -32.8470 N   0  0  0  0  0  0  0  0  0  0  0  0
  -27.5840   -9.1260  -31.3460 N   0  0  0  0  0  0  0  0  0  0  0  0
  -28.5420  -10.0540  -31.7480 C   0  0  0  0  0  0  0  0  0  0  0  0
  -29.3470  -10.6720  -30.8060 C   0  0  0  0  0  0  0  0  0  0  0  0
    0.0000    0.0000    0.0000 O   0  0  0  0  0  0  0  0  0  0  0  0
  1  2  2  0
  1  3  1  0
  3  4  1  0
  4  5  2  3
  5  6  1  0
M  END
>  <name>  (8) 
Car Nac Nd0 Car Car O_a

>  <indices>  (8) 
[0, 1, 2]

>  <dummy>  (8) 
1

>  <tasks>  (8) 
probe_placing close_aromatic_ring close_aromatic_ring

>  <current_task>  (8) 
close_aromatic_ring

>  <prot_clashes>  (8) 
2

>  <NBS phar>  (8) 
0.2

>  <NBS_non-phar>  (8) 
0.7273970603942871

>  <NBS>  (8) 
0.9273970603942872

>  <source_stage>  (8) 
scored

>  <source_iter>  (8) 
2

>  <source_parent_mol>  (8) 
2

>  <source_scenario>  (8) 
0 2

>  <source_rank_in_scored_call>  (8) 
2

>  <source_current_task>  (8) 
close_aromatic_ring

>  <rotatable_bond_torsions>  (8) 
1,0,2,3;0,2,3,4

>  <scenario>  (8) 
0 2

>  <reason_to_skip>  (8) 
some_atom_counter_exceeded

$$$$

     RDKit          3D

  6  5  0  0  0  0  0  0  0  0999 V2000
  -27.5370   -7.7530  -31.6270 C   0  0  0  0  0  0  0  0  0  0  0  0
  -27.9570   -7.3140  -32.8470 N   0  0  0  0  0  0  0  0  0  0  0  0
  -27.5840   -9.1260  -31.3460 N   0  0  0  0  0  0  0  0  0  0  0  0
  -28.5420  -10.0540  -31.7480 C   0  0  0  0  0  0  0  0  0  0  0  0
  -29.3470  -10.6720  -30.8060 C   0  0  0  0  0  0  0  0  0  0  0  0
  -30.3429  -11.5880  -30.8326 N   0  0  0  0  0  0  0  0  0  0  0  0
  1  2  2  0
  1  3  1  0
  3  4  1  0
  4  5  2  3
  5  6  1  0
M  END
>  <name>  (9) 
Car Nac Nd0 Car Car Nd0

>  <indices>  (9) 
[0, 1, 2]

>  <dummy>  (9) 
1

>  <tasks>  (9) 
probe_placing close_aromatic_ring close_aromatic_ring

>  <current_task>  (9) 
close_aromatic_ring

>  <prot_clashes>  (9) 
2

>  <NBS phar>  (9) 
0.2

>  <NBS_non-phar>  (9) 
0.7273970603942871

>  <NBS>  (9) 
0.9273970603942872

>  <source_stage>  (9) 
scored

>  <source_iter>  (9) 
2

>  <source_parent_mol>  (9) 
2

>  <source_scenario>  (9) 
0 2

>  <source_rank_in_scored_call>  (9) 
2

>  <source_current_task>  (9) 
close_aromatic_ring

>  <rotatable_bond_torsions>  (9) 
1,0,2,3;0,2,3,4

>  <scenario>  (9) 
0 2

>  <reason_to_skip>  (9) 
bad angles

$$$$

     RDKit          3D

  6  5  0  0  0  0  0  0  0  0999 V2000
  -27.5370   -7.7530  -31.6270 C   0  0  0  0  0  0  0  0  0  0  0  0
  -27.9570   -7.3140  -32.8470 N   0  0  0  0  0  0  0  0  0  0  0  0
  -27.5840   -9.1260  -31.3460 N   0  0  0  0  0  0  0  0  0  0  0  0
  -28.5420  -10.0540  -31.7480 C   0  0  0  0  0  0  0  0  0  0  0  0
  -29.3470  -10.6720  -30.8060 C   0  0  0  0  0  0  0  0  0  0  0  0
  -30.3111  -11.5872  -31.1936 N   0  0  0  0  0  0  0  0  0  0  0  0
  1  2  2  0
  1  3  1  0
  3  4  1  0
  4  5  2  3
  5  6  1  0
M  END
>  <name>  (10) 
Car Nac Nd0 Car Car Nac

>  <indices>  (10) 
[0, 1, 2]

>  <dummy>  (10) 
1

>  <tasks>  (10) 
probe_placing close_aromatic_ring close_aromatic_ring

>  <current_task>  (10) 
close_aromatic_ring

>  <prot_clashes>  (10) 
2

>  <NBS phar>  (10) 
0.2

>  <NBS_non-phar>  (10) 
0.7273970603942871

>  <NBS>  (10) 
0.9273970603942872

>  <source_stage>  (10) 
scored

>  <source_iter>  (10) 
2

>  <source_parent_mol>  (10) 
2

>  <source_scenario>  (10) 
0 2

>  <source_rank_in_scored_call>  (10) 
2

>  <source_current_task>  (10) 
close_aromatic_ring

>  <rotatable_bond_torsions>  (10) 
1,0,2,3;0,2,3,4

>  <scenario>  (10) 
0 2

>  <reason_to_skip>  (10) 
incorrect arom ring closing

$$$$

     RDKit          3D

  6  5  0  0  0  0  0  0  0  0999 V2000
  -27.5370   -7.7530  -31.6270 C   0  0  0  0  0  0  0  0  0  0  0  0
  -27.9570   -7.3140  -32.8470 N   0  0  0  0  0  0  0  0  0  0  0  0
  -27.5840   -9.1260  -31.3460 N   0  0  0  0  0  0  0  0  0  0  0  0
  -28.5420  -10.0540  -31.7480 C   0  0  0  0  0  0  0  0  0  0  0  0
  -29.3470  -10.6720  -30.8060 C   0  0  0  0  0  0  0  0  0  0  0  0
    0.0000    0.0000    0.0000 O   0  0  0  0  0  0  0  0  0  0  0  0
  1  2  2  0
  1  3  1  0
  3  4  1  0
  4  5  2  3
  5  6  1  0
M  END
>  <name>  (11) 
Car Nac Nd0 Car Car O_a

>  <indices>  (11) 
[0, 1, 2]

>  <dummy>  (11) 
1

>  <tasks>  (11) 
probe_placing close_aromatic_ring close_aromatic_ring

>  <current_task>  (11) 
close_aromatic_ring

>  <prot_clashes>  (11) 
2

>  <NBS phar>  (11) 
0.2

>  <NBS_non-phar>  (11) 
0.7273970603942871

>  <NBS>  (11) 
0.9273970603942872

>  <source_stage>  (11) 
scored

>  <source_iter>  (11) 
2

>  <source_parent_mol>  (11) 
2

>  <source_scenario>  (11) 
0 2

>  <source_rank_in_scored_call>  (11) 
2

>  <source_current_task>  (11) 
close_aromatic_ring

>  <rotatable_bond_torsions>  (11) 
1,0,2,3;0,2,3,4

>  <scenario>  (11) 
0 2

>  <reason_to_skip>  (11) 
some_atom_counter_exceeded

$$$$

     RDKit          3D

  6  5  0  0  0  0  0  0  0  0999 V2000
  -27.5370   -7.7530  -31.6270 C   0  0  0  0  0  0  0  0  0  0  0  0
  -27.9570   -7.3140  -32.8470 N   0  0  0  0  0  0  0  0  0  0  0  0
  -27.5840   -9.1260  -31.3460 N   0  0  0  0  0  0  0  0  0  0  0  0
  -28.5420  -10.0540  -31.7480 C   0  0  0  0  0  0  0  0  0  0  0  0
  -29.3470  -10.6720  -30.8060 C   0  0  0  0  0  0  0  0  0  0  0  0
  -30.6125  -10.0483  -30.6807 C   0  0  0  0  0  0  0  0  0  0  0  0
  1  2  2  0
  1  3  1  0
  3  4  1  0
  4  5  2  3
  5  6  1  0
M  END
>  <name>  (12) 
Car Nac Nd0 Car Car Car

>  <indices>  (12) 
[0, 1, 2]

>  <dummy>  (12) 
1

>  <tasks>  (12) 
probe_placing close_aromatic_ring close_aromatic_ring

>  <current_task>  (12) 
close_aromatic_ring

>  <prot_clashes>  (12) 
2

>  <NBS phar>  (12) 
0.2

>  <NBS_non-phar>  (12) 
0.7273970603942871

>  <NBS>  (12) 
0.9273970603942872

>  <source_stage>  (12) 
scored

>  <source_iter>  (12) 
2

>  <source_parent_mol>  (12) 
2

>  <source_scenario>  (12) 
0 2

>  <source_rank_in_scored_call>  (12) 
2

>  <source_current_task>  (12) 
close_aromatic_ring

>  <rotatable_bond_torsions>  (12) 
1,0,2,3;0,2,3,4

>  <scenario>  (12) 
0 2

>  <reason_to_skip>  (12) 
incorrect arom ring closing

$$$$

     RDKit          3D

  6  5  0  0  0  0  0  0  0  0999 V2000
  -27.5370   -7.7530  -31.6270 C   0  0  0  0  0  0  0  0  0  0  0  0
  -27.9570   -7.3140  -32.8470 N   0  0  0  0  0  0  0  0  0  0  0  0
  -27.5840   -9.1260  -31.3460 N   0  0  0  0  0  0  0  0  0  0  0  0
  -28.5420  -10.0540  -31.7480 C   0  0  0  0  0  0  0  0  0  0  0  0
  -29.3470  -10.6720  -30.8060 C   0  0  0  0  0  0  0  0  0  0  0  0
  -29.2178  -10.3582  -29.4961 N   0  0  0  0  0  0  0  0  0  0  0  0
  1  2  2  0
  1  3  1  0
  3  4  1  0
  4  5  2  3
  5  6  1  0
M  END
>  <name>  (13) 
Car Nac Nd0 Car Car Nd0

>  <indices>  (13) 
[0, 1, 2]

>  <dummy>  (13) 
1

>  <tasks>  (13) 
probe_placing close_aromatic_ring close_aromatic_ring

>  <current_task>  (13) 
close_aromatic_ring

>  <prot_clashes>  (13) 
2

>  <NBS phar>  (13) 
0.2

>  <NBS_non-phar>  (13) 
0.7273970603942871

>  <NBS>  (13) 
0.9273970603942872

>  <source_stage>  (13) 
scored

>  <source_iter>  (13) 
2

>  <source_parent_mol>  (13) 
2

>  <source_scenario>  (13) 
0 2

>  <source_rank_in_scored_call>  (13) 
2

>  <source_current_task>  (13) 
close_aromatic_ring

>  <rotatable_bond_torsions>  (13) 
1,0,2,3;0,2,3,4

>  <scenario>  (13) 
0 2

>  <reason_to_skip>  (13) 
intramol repulsion

$$$$

     RDKit          3D

  6  5  0  0  0  0  0  0  0  0999 V2000
  -27.5370   -7.7530  -31.6270 C   0  0  0  0  0  0  0  0  0  0  0  0
  -27.9570   -7.3140  -32.8470 N   0  0  0  0  0  0  0  0  0  0  0  0
  -27.5840   -9.1260  -31.3460 N   0  0  0  0  0  0  0  0  0  0  0  0
  -28.5420  -10.0540  -31.7480 C   0  0  0  0  0  0  0  0  0  0  0  0
  -29.3470  -10.6720  -30.8060 C   0  0  0  0  0  0  0  0  0  0  0  0
  -30.2609  -11.5359  -31.2051 N   0  0  0  0  0  0  0  0  0  0  0  0
  1  2  2  0
  1  3  1  0
  3  4  1  0
  4  5  2  3
  5  6  1  0
M  END
>  <name>  (14) 
Car Nac Nd0 Car Car Nd0

>  <indices>  (14) 
[0, 1, 2]

>  <dummy>  (14) 
1

>  <tasks>  (14) 
probe_placing close_aromatic_ring close_aromatic_ring

>  <current_task>  (14) 
close_aromatic_ring

>  <prot_clashes>  (14) 
2

>  <NBS phar>  (14) 
0.2

>  <NBS_non-phar>  (14) 
0.7273970603942871

>  <NBS>  (14) 
0.9273970603942872

>  <source_stage>  (14) 
scored

>  <source_iter>  (14) 
2

>  <source_parent_mol>  (14) 
2

>  <source_scenario>  (14) 
0 2

>  <source_rank_in_scored_call>  (14) 
2

>  <source_current_task>  (14) 
close_aromatic_ring

>  <rotatable_bond_torsions>  (14) 
1,0,2,3;0,2,3,4

>  <scenario>  (14) 
0 2

>  <reason_to_skip>  (14) 
incorrect arom ring closing

$$$$

     RDKit          3D

  6  5  0  0  0  0  0  0  0  0999 V2000
  -27.5370   -7.7530  -31.6270 C   0  0  0  0  0  0  0  0  0  0  0  0
  -27.9570   -7.3140  -32.8470 N   0  0  0  0  0  0  0  0  0  0  0  0
  -27.5840   -9.1260  -31.3460 N   0  0  0  0  0  0  0  0  0  0  0  0
  -28.5420  -10.0540  -31.7480 C   0  0  0  0  0  0  0  0  0  0  0  0
  -29.3470  -10.6720  -30.8060 C   0  0  0  0  0  0  0  0  0  0  0  0
    0.0000    0.0000    0.0000 S   0  0  0  0  0  0  0  0  0  0  0  0
  1  2  2  0
  1  3  1  0
  3  4  1  0
  4  5  2  3
  5  6  1  0
M  END
>  <name>  (15) 
Car Nac Nd0 Car Car Sul

>  <indices>  (15) 
[0, 1, 2]

>  <dummy>  (15) 
1

>  <tasks>  (15) 
probe_placing close_aromatic_ring close_aromatic_ring

>  <current_task>  (15) 
close_aromatic_ring

>  <prot_clashes>  (15) 
2

>  <NBS phar>  (15) 
0.2

>  <NBS_non-phar>  (15) 
0.7273970603942871

>  <NBS>  (15) 
0.9273970603942872

>  <source_stage>  (15) 
scored

>  <source_iter>  (15) 
2

>  <source_parent_mol>  (15) 
2

>  <source_scenario>  (15) 
0 2

>  <source_rank_in_scored_call>  (15) 
2

>  <source_current_task>  (15) 
close_aromatic_ring

>  <rotatable_bond_torsions>  (15) 
1,0,2,3;0,2,3,4

>  <scenario>  (15) 
0 2

>  <reason_to_skip>  (15) 
some_atom_counter_exceeded

$$$$

     RDKit          3D

  6  5  0  0  0  0  0  0  0  0999 V2000
  -27.5370   -7.7530  -31.6270 C   0  0  0  0  0  0  0  0  0  0  0  0
  -27.9570   -7.3140  -32.8470 N   0  0  0  0  0  0  0  0  0  0  0  0
  -27.5840   -9.1260  -31.3460 N   0  0  0  0  0  0  0  0  0  0  0  0
  -28.5420  -10.0540  -31.7480 C   0  0  0  0  0  0  0  0  0  0  0  0
  -29.3470  -10.6720  -30.8060 C   0  0  0  0  0  0  0  0  0  0  0  0
  -30.7511  -10.3605  -30.6297 C   0  0  0  0  0  0  0  0  0  0  0  0
  1  2  2  0
  1  3  1  0
  3  4  1  0
  4  5  2  3
  5  6  1  0
M  END
>  <name>  (16) 
Car Nac Nd0 Car Car Car

>  <indices>  (16) 
[0, 1, 2]

>  <dummy>  (16) 
1

>  <tasks>  (16) 
probe_placing close_aromatic_ring close_aromatic_ring

>  <current_task>  (16) 
close_aromatic_ring

>  <prot_clashes>  (16) 
2

>  <NBS phar>  (16) 
0.2

>  <NBS_non-phar>  (16) 
0.7273970603942871

>  <NBS>  (16) 
0.9273970603942872

>  <source_stage>  (16) 
scored

>  <source_iter>  (16) 
2

>  <source_parent_mol>  (16) 
2

>  <source_scenario>  (16) 
0 2

>  <source_rank_in_scored_call>  (16) 
2

>  <source_current_task>  (16) 
close_aromatic_ring

>  <rotatable_bond_torsions>  (16) 
1,0,2,3;0,2,3,4

>  <scenario>  (16) 
0 2

>  <reason_to_skip>  (16) 
incorrect arom ring closing

$$$$

     RDKit          3D

  6  5  0  0  0  0  0  0  0  0999 V2000
  -27.5370   -7.7530  -31.6270 C   0  0  0  0  0  0  0  0  0  0  0  0
  -27.9570   -7.3140  -32.8470 N   0  0  0  0  0  0  0  0  0  0  0  0
  -27.5840   -9.1260  -31.3460 N   0  0  0  0  0  0  0  0  0  0  0  0
  -28.5420  -10.0540  -31.7480 C   0  0  0  0  0  0  0  0  0  0  0  0
  -29.3470  -10.6720  -30.8060 C   0  0  0  0  0  0  0  0  0  0  0  0
  -29.5053  -10.5922  -29.5020 N   0  0  0  0  0  0  0  0  0  0  0  0
  1  2  2  0
  1  3  1  0
  3  4  1  0
  4  5  2  3
  5  6  1  0
M  END
>  <name>  (17) 
Car Nac Nd0 Car Car Nd0

>  <indices>  (17) 
[0, 1, 2]

>  <dummy>  (17) 
1

>  <tasks>  (17) 
probe_placing close_aromatic_ring close_aromatic_ring

>  <current_task>  (17) 
close_aromatic_ring

>  <prot_clashes>  (17) 
2

>  <NBS phar>  (17) 
0.2

>  <NBS_non-phar>  (17) 
0.7273970603942871

>  <NBS>  (17) 
0.9273970603942872

>  <source_stage>  (17) 
scored

>  <source_iter>  (17) 
2

>  <source_parent_mol>  (17) 
2

>  <source_scenario>  (17) 
0 2

>  <source_rank_in_scored_call>  (17) 
2

>  <source_current_task>  (17) 
close_aromatic_ring

>  <rotatable_bond_torsions>  (17) 
1,0,2,3;0,2,3,4

>  <scenario>  (17) 
0 2

>  <reason_to_skip>  (17) 
bad angles

$$$$

     RDKit          3D

  6  5  0  0  0  0  0  0  0  0999 V2000
  -27.5370   -7.7530  -31.6270 C   0  0  0  0  0  0  0  0  0  0  0  0
  -27.9570   -7.3140  -32.8470 N   0  0  0  0  0  0  0  0  0  0  0  0
  -27.5840   -9.1260  -31.3460 N   0  0  0  0  0  0  0  0  0  0  0  0
  -28.5420  -10.0540  -31.7480 C   0  0  0  0  0  0  0  0  0  0  0  0
  -29.3470  -10.6720  -30.8060 C   0  0  0  0  0  0  0  0  0  0  0  0
    0.0000    0.0000    0.0000 O   0  0  0  0  0  0  0  0  0  0  0  0
  1  2  2  0
  1  3  1  0
  3  4  1  0
  4  5  2  3
  5  6  1  0
M  END
>  <name>  (18) 
Car Nac Nd0 Car Car O_a

>  <indices>  (18) 
[0, 1, 2]

>  <dummy>  (18) 
1

>  <tasks>  (18) 
probe_placing close_aromatic_ring close_aromatic_ring

>  <current_task>  (18) 
close_aromatic_ring

>  <prot_clashes>  (18) 
2

>  <NBS phar>  (18) 
0.2

>  <NBS_non-phar>  (18) 
0.7273970603942871

>  <NBS>  (18) 
0.9273970603942872

>  <source_stage>  (18) 
scored

>  <source_iter>  (18) 
2

>  <source_parent_mol>  (18) 
2

>  <source_scenario>  (18) 
0 2

>  <source_rank_in_scored_call>  (18) 
2

>  <source_current_task>  (18) 
close_aromatic_ring

>  <rotatable_bond_torsions>  (18) 
1,0,2,3;0,2,3,4

>  <scenario>  (18) 
0 2

>  <reason_to_skip>  (18) 
some_atom_counter_exceeded

$$$$

     RDKit          3D

  6  5  0  0  0  0  0  0  0  0999 V2000
  -27.5370   -7.7530  -31.6270 C   0  0  0  0  0  0  0  0  0  0  0  0
  -27.9570   -7.3140  -32.8470 N   0  0  0  0  0  0  0  0  0  0  0  0
  -27.5840   -9.1260  -31.3460 N   0  0  0  0  0  0  0  0  0  0  0  0
  -28.5420  -10.0540  -31.7480 C   0  0  0  0  0  0  0  0  0  0  0  0
  -29.3470  -10.6720  -30.8060 C   0  0  0  0  0  0  0  0  0  0  0  0
    0.0000    0.0000    0.0000 S   0  0  0  0  0  0  0  0  0  0  0  0
  1  2  2  0
  1  3  1  0
  3  4  1  0
  4  5  2  3
  5  6  1  0
M  END
>  <name>  (19) 
Car Nac Nd0 Car Car Sul

>  <indices>  (19) 
[0, 1, 2]

>  <dummy>  (19) 
1

>  <tasks>  (19) 
probe_placing close_aromatic_ring close_aromatic_ring

>  <current_task>  (19) 
close_aromatic_ring

>  <prot_clashes>  (19) 
2

>  <NBS phar>  (19) 
0.2

>  <NBS_non-phar>  (19) 
0.7273970603942871

>  <NBS>  (19) 
0.9273970603942872

>  <source_stage>  (19) 
scored

>  <source_iter>  (19) 
2

>  <source_parent_mol>  (19) 
2

>  <source_scenario>  (19) 
0 2

>  <source_rank_in_scored_call>  (19) 
2

>  <source_current_task>  (19) 
close_aromatic_ring

>  <rotatable_bond_torsions>  (19) 
1,0,2,3;0,2,3,4

>  <scenario>  (19) 
0 2

>  <reason_to_skip>  (19) 
some_atom_counter_exceeded

$$$$

     RDKit          3D

  6  5  0  0  0  0  0  0  0  0999 V2000
  -27.5370   -7.7530  -31.6270 C   0  0  0  0  0  0  0  0  0  0  0  0
  -27.9570   -7.3140  -32.8470 N   0  0  0  0  0  0  0  0  0  0  0  0
  -27.5840   -9.1260  -31.3460 N   0  0  0  0  0  0  0  0  0  0  0  0
  -28.5420  -10.0540  -31.7480 C   0  0  0  0  0  0  0  0  0  0  0  0
  -29.3470  -10.6720  -30.8060 C   0  0  0  0  0  0  0  0  0  0  0  0
    0.0000    0.0000    0.0000 S   0  0  0  0  0  0  0  0  0  0  0  0
  1  2  2  0
  1  3  1  0
  3  4  1  0
  4  5  2  3
  5  6  1  0
M  END
>  <name>  (20) 
Car Nac Nd0 Car Car Sul

>  <indices>  (20) 
[0, 1, 2]

>  <dummy>  (20) 
1

>  <tasks>  (20) 
probe_placing close_aromatic_ring close_aromatic_ring

>  <current_task>  (20) 
close_aromatic_ring

>  <prot_clashes>  (20) 
2

>  <NBS phar>  (20) 
0.2

>  <NBS_non-phar>  (20) 
0.7273970603942871

>  <NBS>  (20) 
0.9273970603942872

>  <source_stage>  (20) 
scored

>  <source_iter>  (20) 
2

>  <source_parent_mol>  (20) 
2

>  <source_scenario>  (20) 
0 2

>  <source_rank_in_scored_call>  (20) 
2

>  <source_current_task>  (20) 
close_aromatic_ring

>  <rotatable_bond_torsions>  (20) 
1,0,2,3;0,2,3,4

>  <scenario>  (20) 
0 2

>  <reason_to_skip>  (20) 
some_atom_counter_exceeded

$$$$

     RDKit          3D

  6  5  0  0  0  0  0  0  0  0999 V2000
  -27.5370   -7.7530  -31.6270 C   0  0  0  0  0  0  0  0  0  0  0  0
  -27.9570   -7.3140  -32.8470 N   0  0  0  0  0  0  0  0  0  0  0  0
  -27.5840   -9.1260  -31.3460 N   0  0  0  0  0  0  0  0  0  0  0  0
  -28.5420  -10.0540  -31.7480 C   0  0  0  0  0  0  0  0  0  0  0  0
  -29.3470  -10.6720  -30.8060 C   0  0  0  0  0  0  0  0  0  0  0  0
    0.0000    0.0000    0.0000 S   0  0  0  0  0  0  0  0  0  0  0  0
  1  2  2  0
  1  3  1  0
  3  4  1  0
  4  5  2  3
  5  6  1  0
M  END
>  <name>  (21) 
Car Nac Nd0 Car Car Sul

>  <indices>  (21) 
[0, 1, 2]

>  <dummy>  (21) 
1

>  <tasks>  (21) 
probe_placing close_aromatic_ring close_aromatic_ring

>  <current_task>  (21) 
close_aromatic_ring

>  <prot_clashes>  (21) 
2

>  <NBS phar>  (21) 
0.2

>  <NBS_non-phar>  (21) 
0.7273970603942871

>  <NBS>  (21) 
0.9273970603942872

>  <source_stage>  (21) 
scored

>  <source_iter>  (21) 
2

>  <source_parent_mol>  (21) 
2

>  <source_scenario>  (21) 
0 2

>  <source_rank_in_scored_call>  (21) 
2

>  <source_current_task>  (21) 
close_aromatic_ring

>  <rotatable_bond_torsions>  (21) 
1,0,2,3;0,2,3,4

>  <scenario>  (21) 
0 2

>  <reason_to_skip>  (21) 
some_atom_counter_exceeded

$$$$

     RDKit          3D

  6  5  0  0  0  0  0  0  0  0999 V2000
  -27.5370   -7.7530  -31.6270 C   0  0  0  0  0  0  0  0  0  0  0  0
  -27.9570   -7.3140  -32.8470 N   0  0  0  0  0  0  0  0  0  0  0  0
  -27.5840   -9.1260  -31.3460 N   0  0  0  0  0  0  0  0  0  0  0  0
  -28.5420  -10.0540  -31.7480 C   0  0  0  0  0  0  0  0  0  0  0  0
  -29.3470  -10.6720  -30.8060 C   0  0  0  0  0  0  0  0  0  0  0  0
    0.0000    0.0000    0.0000 O   0  0  0  0  0  0  0  0  0  0  0  0
  1  2  2  0
  1  3  1  0
  3  4  1  0
  4  5  2  3
  5  6  1  0
M  END
>  <name>  (22) 
Car Nac Nd0 Car Car O_a

>  <indices>  (22) 
[0, 1, 2]

>  <dummy>  (22) 
1

>  <tasks>  (22) 
probe_placing close_aromatic_ring close_aromatic_ring

>  <current_task>  (22) 
close_aromatic_ring

>  <prot_clashes>  (22) 
2

>  <NBS phar>  (22) 
0.2

>  <NBS_non-phar>  (22) 
0.7273970603942871

>  <NBS>  (22) 
0.9273970603942872

>  <source_stage>  (22) 
scored

>  <source_iter>  (22) 
2

>  <source_parent_mol>  (22) 
2

>  <source_scenario>  (22) 
0 2

>  <source_rank_in_scored_call>  (22) 
2

>  <source_current_task>  (22) 
close_aromatic_ring

>  <rotatable_bond_torsions>  (22) 
1,0,2,3;0,2,3,4

>  <scenario>  (22) 
0 2

>  <reason_to_skip>  (22) 
some_atom_counter_exceeded

$$$$

     RDKit          3D

  6  5  0  0  0  0  0  0  0  0999 V2000
  -27.5370   -7.7530  -31.6270 C   0  0  0  0  0  0  0  0  0  0  0  0
  -27.9570   -7.3140  -32.8470 N   0  0  0  0  0  0  0  0  0  0  0  0
  -27.5840   -9.1260  -31.3460 N   0  0  0  0  0  0  0  0  0  0  0  0
  -28.5420  -10.0540  -31.7480 C   0  0  0  0  0  0  0  0  0  0  0  0
  -29.3470  -10.6720  -30.8060 C   0  0  0  0  0  0  0  0  0  0  0  0
    0.0000    0.0000    0.0000 S   0  0  0  0  0  0  0  0  0  0  0  0
  1  2  2  0
  1  3  1  0
  3  4  1  0
  4  5  2  3
  5  6  1  0
M  END
>  <name>  (23) 
Car Nac Nd0 Car Car Sul

>  <indices>  (23) 
[0, 1, 2]

>  <dummy>  (23) 
1

>  <tasks>  (23) 
probe_placing close_aromatic_ring close_aromatic_ring

>  <current_task>  (23) 
close_aromatic_ring

>  <prot_clashes>  (23) 
2

>  <NBS phar>  (23) 
0.2

>  <NBS_non-phar>  (23) 
0.7273970603942871

>  <NBS>  (23) 
0.9273970603942872

>  <source_stage>  (23) 
scored

>  <source_iter>  (23) 
2

>  <source_parent_mol>  (23) 
2

>  <source_scenario>  (23) 
0 2

>  <source_rank_in_scored_call>  (23) 
2

>  <source_current_task>  (23) 
close_aromatic_ring

>  <rotatable_bond_torsions>  (23) 
1,0,2,3;0,2,3,4

>  <scenario>  (23) 
0 2

>  <reason_to_skip>  (23) 
some_atom_counter_exceeded

$$$$

     RDKit          3D

  6  5  0  0  0  0  0  0  0  0999 V2000
  -27.5370   -7.7530  -31.6270 C   0  0  0  0  0  0  0  0  0  0  0  0
  -27.9570   -7.3140  -32.8470 N   0  0  0  0  0  0  0  0  0  0  0  0
  -27.5840   -9.1260  -31.3460 N   0  0  0  0  0  0  0  0  0  0  0  0
  -28.5420  -10.0540  -31.7480 C   0  0  0  0  0  0  0  0  0  0  0  0
  -29.3470  -10.6720  -30.8060 C   0  0  0  0  0  0  0  0  0  0  0  0
    0.0000    0.0000    0.0000 S   0  0  0  0  0  0  0  0  0  0  0  0
  1  2  2  0
  1  3  1  0
  3  4  1  0
  4  5  2  3
  5  6  1  0
M  END
>  <name>  (24) 
Car Nac Nd0 Car Car Sul

>  <indices>  (24) 
[0, 1, 2]

>  <dummy>  (24) 
1

>  <tasks>  (24) 
probe_placing close_aromatic_ring close_aromatic_ring

>  <current_task>  (24) 
close_aromatic_ring

>  <prot_clashes>  (24) 
2

>  <NBS phar>  (24) 
0.2

>  <NBS_non-phar>  (24) 
0.7273970603942871

>  <NBS>  (24) 
0.9273970603942872

>  <source_stage>  (24) 
scored

>  <source_iter>  (24) 
2

>  <source_parent_mol>  (24) 
2

>  <source_scenario>  (24) 
0 2

>  <source_rank_in_scored_call>  (24) 
2

>  <source_current_task>  (24) 
close_aromatic_ring

>  <rotatable_bond_torsions>  (24) 
1,0,2,3;0,2,3,4

>  <scenario>  (24) 
0 2

>  <reason_to_skip>  (24) 
some_atom_counter_exceeded

$$$$

     RDKit          3D

  6  5  0  0  0  0  0  0  0  0999 V2000
  -27.5370   -7.7530  -31.6270 C   0  0  0  0  0  0  0  0  0  0  0  0
  -27.9570   -7.3140  -32.8470 N   0  0  0  0  0  0  0  0  0  0  0  0
  -27.5840   -9.1260  -31.3460 N   0  0  0  0  0  0  0  0  0  0  0  0
  -28.5420  -10.0540  -31.7480 C   0  0  0  0  0  0  0  0  0  0  0  0
  -29.3470  -10.6720  -30.8060 C   0  0  0  0  0  0  0  0  0  0  0  0
  -29.3279  -12.0669  -30.6426 C   0  0  0  0  0  0  0  0  0  0  0  0
  1  2  2  0
  1  3  1  0
  3  4  1  0
  4  5  2  3
  5  6  1  0
M  END
>  <name>  (25) 
Car Nac Nd0 Car Car Car

>  <indices>  (25) 
[0, 1, 2]

>  <dummy>  (25) 
1

>  <tasks>  (25) 
probe_placing close_aromatic_ring close_aromatic_ring

>  <current_task>  (25) 
close_aromatic_ring

>  <prot_clashes>  (25) 
2

>  <NBS phar>  (25) 
0.2

>  <NBS_non-phar>  (25) 
0.7273970603942871

>  <NBS>  (25) 
0.9273970603942872

>  <source_stage>  (25) 
scored

>  <source_iter>  (25) 
2

>  <source_parent_mol>  (25) 
2

>  <source_scenario>  (25) 
0 2

>  <source_rank_in_scored_call>  (25) 
2

>  <source_current_task>  (25) 
close_aromatic_ring

>  <rotatable_bond_torsions>  (25) 
1,0,2,3;0,2,3,4

>  <scenario>  (25) 
0 2

>  <reason_to_skip>  (25) 
incorrect arom ring closing

$$$$

     RDKit          3D

  6  5  0  0  0  0  0  0  0  0999 V2000
  -27.5370   -7.7530  -31.6270 C   0  0  0  0  0  0  0  0  0  0  0  0
  -27.9570   -7.3140  -32.8470 N   0  0  0  0  0  0  0  0  0  0  0  0
  -27.5840   -9.1260  -31.3460 N   0  0  0  0  0  0  0  0  0  0  0  0
  -28.5420  -10.0540  -31.7480 C   0  0  0  0  0  0  0  0  0  0  0  0
  -29.3470  -10.6720  -30.8060 C   0  0  0  0  0  0  0  0  0  0  0  0
  -28.9017  -12.0330  -30.2060 C   0  0  0  0  0  0  0  0  0  0  0  0
  1  2  2  0
  1  3  1  0
  3  4  1  0
  4  5  2  3
  5  6  1  0
M  END
>  <name>  (26) 
Car Nac Nd0 Car Car Car

>  <indices>  (26) 
[0, 1, 2]

>  <dummy>  (26) 
1

>  <tasks>  (26) 
probe_placing close_aromatic_ring close_aromatic_ring

>  <current_task>  (26) 
close_aromatic_ring

>  <prot_clashes>  (26) 
2

>  <NBS phar>  (26) 
0.2

>  <NBS_non-phar>  (26) 
0.7273970603942871

>  <NBS>  (26) 
0.9273970603942872

>  <source_stage>  (26) 
scored

>  <source_iter>  (26) 
2

>  <source_parent_mol>  (26) 
2

>  <source_scenario>  (26) 
0 2

>  <source_rank_in_scored_call>  (26) 
2

>  <source_current_task>  (26) 
close_aromatic_ring

>  <rotatable_bond_torsions>  (26) 
1,0,2,3;0,2,3,4

>  <scenario>  (26) 
0 2

>  <reason_to_skip>  (26) 
incorrect arom ring closing

$$$$

     RDKit          3D

  6  5  0  0  0  0  0  0  0  0999 V2000
  -27.5370   -7.7530  -31.6270 C   0  0  0  0  0  0  0  0  0  0  0  0
  -27.9570   -7.3140  -32.8470 N   0  0  0  0  0  0  0  0  0  0  0  0
  -27.5840   -9.1260  -31.3460 N   0  0  0  0  0  0  0  0  0  0  0  0
  -28.5420  -10.0540  -31.7480 C   0  0  0  0  0  0  0  0  0  0  0  0
  -29.3470  -10.6720  -30.8060 C   0  0  0  0  0  0  0  0  0  0  0  0
  -29.3161  -10.4713  -29.4362 C   0  0  0  0  0  0  0  0  0  0  0  0
  1  2  2  0
  1  3  1  0
  3  4  1  0
  4  5  2  3
  5  6  1  0
M  END
>  <name>  (27) 
Car Nac Nd0 Car Car Car

>  <indices>  (27) 
[0, 1, 2]

>  <dummy>  (27) 
1

>  <tasks>  (27) 
probe_placing close_aromatic_ring close_aromatic_ring

>  <current_task>  (27) 
close_aromatic_ring

>  <prot_clashes>  (27) 
2

>  <NBS phar>  (27) 
0.2

>  <NBS_non-phar>  (27) 
0.7273970603942871

>  <NBS>  (27) 
0.9273970603942872

>  <source_stage>  (27) 
scored

>  <source_iter>  (27) 
2

>  <source_parent_mol>  (27) 
2

>  <source_scenario>  (27) 
0 2

>  <source_rank_in_scored_call>  (27) 
2

>  <source_current_task>  (27) 
close_aromatic_ring

>  <rotatable_bond_torsions>  (27) 
1,0,2,3;0,2,3,4

>  <scenario>  (27) 
0 2

>  <reason_to_skip>  (27) 
subgraph mismatch

$$$$

     RDKit          3D

  6  5  0  0  0  0  0  0  0  0999 V2000
  -27.5370   -7.7530  -31.6270 C   0  0  0  0  0  0  0  0  0  0  0  0
  -27.9570   -7.3140  -32.8470 N   0  0  0  0  0  0  0  0  0  0  0  0
  -27.5840   -9.1260  -31.3460 N   0  0  0  0  0  0  0  0  0  0  0  0
  -28.5420  -10.0540  -31.7480 C   0  0  0  0  0  0  0  0  0  0  0  0
  -29.3470  -10.6720  -30.8060 C   0  0  0  0  0  0  0  0  0  0  0  0
  -29.3552  -10.5147  -29.4553 N   0  0  0  0  0  0  0  0  0  0  0  0
  1  2  2  0
  1  3  1  0
  3  4  1  0
  4  5  2  3
  5  6  1  0
M  END
>  <name>  (28) 
Car Nac Nd0 Car Car Nac

>  <indices>  (28) 
[0, 1, 2]

>  <dummy>  (28) 
1

>  <tasks>  (28) 
probe_placing close_aromatic_ring close_aromatic_ring

>  <current_task>  (28) 
close_aromatic_ring

>  <prot_clashes>  (28) 
2

>  <NBS phar>  (28) 
0.2

>  <NBS_non-phar>  (28) 
0.7273970603942871

>  <NBS>  (28) 
0.9273970603942872

>  <source_stage>  (28) 
scored

>  <source_iter>  (28) 
2

>  <source_parent_mol>  (28) 
2

>  <source_scenario>  (28) 
0 2

>  <source_rank_in_scored_call>  (28) 
2

>  <source_current_task>  (28) 
close_aromatic_ring

>  <rotatable_bond_torsions>  (28) 
1,0,2,3;0,2,3,4

>  <scenario>  (28) 
0 2

>  <reason_to_skip>  (28) 
subgraph mismatch

$$$$

     RDKit          3D

  5  4  0  0  0  0  0  0  0  0999 V2000
  -27.8640   -7.4760  -31.1990 C   0  0  0  0  0  0  0  0  0  0  0  0
  -27.5380   -6.7190  -32.2850 N   0  0  0  0  0  0  0  0  0  0  0  0
  -27.6840   -8.8650  -31.2620 N   0  0  0  0  0  0  0  0  0  0  0  0
  -26.7067   -9.5040  -30.6833 C   0  0  0  0  0  0  0  0  0  0  0  0
    0.0000    0.0000    0.0000 S   0  0  0  0  0  0  0  0  0  0  0  0
  1  2  2  0
  1  3  1  0
  3  4  1  0
  4  5  1  0
M  END
>  <name>  (1) 
Car Nac Nd0 Car Sul

>  <indices>  (1) 
[0, 1, 2]

>  <dummy>  (1) 
1

>  <tasks>  (1) 
probe_placing close_aromatic_ring

>  <current_task>  (1) 
close_aromatic_ring

>  <prot_clashes>  (1) 
6

>  <NBS phar>  (1) 
0.2

>  <NBS_non-phar>  (1) 
0.6821233630180359

>  <NBS>  (1) 
0.8821233630180358

>  <source_stage>  (1) 
scored

>  <source_iter>  (1) 
1

>  <source_parent_mol>  (1) 
0

>  <source_scenario>  (1) 
0

>  <source_rank_in_scored_call>  (1) 
7

>  <source_current_task>  (1) 
close_aromatic_ring

>  <rotatable_bond_torsions>  (1) 
1,0,2,3

>  <scenario>  (1) 
0

>  <reason_to_skip>  (1) 
some_atom_counter_exceeded

$$$$

     RDKit          3D

  5  4  0  0  0  0  0  0  0  0999 V2000
  -27.8640   -7.4760  -31.1990 C   0  0  0  0  0  0  0  0  0  0  0  0
  -27.5380   -6.7190  -32.2850 N   0  0  0  0  0  0  0  0  0  0  0  0
  -27.6840   -8.8650  -31.2620 N   0  0  0  0  0  0  0  0  0  0  0  0
  -26.7067   -9.5040  -30.6833 C   0  0  0  0  0  0  0  0  0  0  0  0
  -26.3206  -10.6814  -30.5635 N   0  0  0  0  0  0  0  0  0  0  0  0
  1  2  2  0
  1  3  1  0
  3  4  1  0
  4  5  1  0
M  END
>  <name>  (2) 
Car Nac Nd0 Car Nac

>  <indices>  (2) 
[0, 1, 2]

>  <dummy>  (2) 
1

>  <tasks>  (2) 
probe_placing close_aromatic_ring

>  <current_task>  (2) 
close_aromatic_ring

>  <prot_clashes>  (2) 
6

>  <NBS phar>  (2) 
0.2

>  <NBS_non-phar>  (2) 
0.6821233630180359

>  <NBS>  (2) 
0.8821233630180358

>  <source_stage>  (2) 
scored

>  <source_iter>  (2) 
1

>  <source_parent_mol>  (2) 
0

>  <source_scenario>  (2) 
0

>  <source_rank_in_scored_call>  (2) 
7

>  <source_current_task>  (2) 
close_aromatic_ring

>  <rotatable_bond_torsions>  (2) 
1,0,2,3

>  <scenario>  (2) 
0

>  <reason_to_skip>  (2) 
bad angles

$$$$

     RDKit          3D

  5  4  0  0  0  0  0  0  0  0999 V2000
  -27.8640   -7.4760  -31.1990 C   0  0  0  0  0  0  0  0  0  0  0  0
  -27.5380   -6.7190  -32.2850 N   0  0  0  0  0  0  0  0  0  0  0  0
  -27.6840   -8.8650  -31.2620 N   0  0  0  0  0  0  0  0  0  0  0  0
  -26.7067   -9.5040  -30.6833 C   0  0  0  0  0  0  0  0  0  0  0  0
    0.0000    0.0000    0.0000 S   0  0  0  0  0  0  0  0  0  0  0  0
  1  2  2  0
  1  3  1  0
  3  4  1  0
  4  5  1  0
M  END
>  <name>  (3) 
Car Nac Nd0 Car Sul

>  <indices>  (3) 
[0, 1, 2]

>  <dummy>  (3) 
1

>  <tasks>  (3) 
probe_placing close_aromatic_ring

>  <current_task>  (3) 
close_aromatic_ring

>  <prot_clashes>  (3) 
6

>  <NBS phar>  (3) 
0.2

>  <NBS_non-phar>  (3) 
0.6821233630180359

>  <NBS>  (3) 
0.8821233630180358

>  <source_stage>  (3) 
scored

>  <source_iter>  (3) 
1

>  <source_parent_mol>  (3) 
0

>  <source_scenario>  (3) 
0

>  <source_rank_in_scored_call>  (3) 
7

>  <source_current_task>  (3) 
close_aromatic_ring

>  <rotatable_bond_torsions>  (3) 
1,0,2,3

>  <scenario>  (3) 
0

>  <reason_to_skip>  (3) 
some_atom_counter_exceeded

$$$$

     RDKit          3D

  5  4  0  0  0  0  0  0  0  0999 V2000
  -27.8640   -7.4760  -31.1990 C   0  0  0  0  0  0  0  0  0  0  0  0
  -27.5380   -6.7190  -32.2850 N   0  0  0  0  0  0  0  0  0  0  0  0
  -27.6840   -8.8650  -31.2620 N   0  0  0  0  0  0  0  0  0  0  0  0
  -26.7067   -9.5040  -30.6833 C   0  0  0  0  0  0  0  0  0  0  0  0
    0.0000    0.0000    0.0000 O   0  0  0  0  0  0  0  0  0  0  0  0
  1  2  2  0
  1  3  1  0
  3  4  1  0
  4  5  1  0
M  END
>  <name>  (4) 
Car Nac Nd0 Car O_a

>  <indices>  (4) 
[0, 1, 2]

>  <dummy>  (4) 
1

>  <tasks>  (4) 
probe_placing close_aromatic_ring

>  <current_task>  (4) 
close_aromatic_ring

>  <prot_clashes>  (4) 
6

>  <NBS phar>  (4) 
0.2

>  <NBS_non-phar>  (4) 
0.6821233630180359

>  <NBS>  (4) 
0.8821233630180358

>  <source_stage>  (4) 
scored

>  <source_iter>  (4) 
1

>  <source_parent_mol>  (4) 
0

>  <source_scenario>  (4) 
0

>  <source_rank_in_scored_call>  (4) 
7

>  <source_current_task>  (4) 
close_aromatic_ring

>  <rotatable_bond_torsions>  (4) 
1,0,2,3

>  <scenario>  (4) 
0

>  <reason_to_skip>  (4) 
some_atom_counter_exceeded

$$$$

     RDKit          3D

  5  4  0  0  0  0  0  0  0  0999 V2000
  -27.8640   -7.4760  -31.1990 C   0  0  0  0  0  0  0  0  0  0  0  0
  -27.5380   -6.7190  -32.2850 N   0  0  0  0  0  0  0  0  0  0  0  0
  -27.6840   -8.8650  -31.2620 N   0  0  0  0  0  0  0  0  0  0  0  0
  -26.7067   -9.5040  -30.6833 C   0  0  0  0  0  0  0  0  0  0  0  0
    0.0000    0.0000    0.0000 S   0  0  0  0  0  0  0  0  0  0  0  0
  1  2  2  0
  1  3  1  0
  3  4  1  0
  4  5  1  0
M  END
>  <name>  (5) 
Car Nac Nd0 Car Sul

>  <indices>  (5) 
[0, 1, 2]

>  <dummy>  (5) 
1

>  <tasks>  (5) 
probe_placing close_aromatic_ring

>  <current_task>  (5) 
close_aromatic_ring

>  <prot_clashes>  (5) 
6

>  <NBS phar>  (5) 
0.2

>  <NBS_non-phar>  (5) 
0.6821233630180359

>  <NBS>  (5) 
0.8821233630180358

>  <source_stage>  (5) 
scored

>  <source_iter>  (5) 
1

>  <source_parent_mol>  (5) 
0

>  <source_scenario>  (5) 
0

>  <source_rank_in_scored_call>  (5) 
7

>  <source_current_task>  (5) 
close_aromatic_ring

>  <rotatable_bond_torsions>  (5) 
1,0,2,3

>  <scenario>  (5) 
0

>  <reason_to_skip>  (5) 
some_atom_counter_exceeded

$$$$

     RDKit          3D

  5  4  0  0  0  0  0  0  0  0999 V2000
  -27.8640   -7.4760  -31.1990 C   0  0  0  0  0  0  0  0  0  0  0  0
  -27.5380   -6.7190  -32.2850 N   0  0  0  0  0  0  0  0  0  0  0  0
  -27.6840   -8.8650  -31.2620 N   0  0  0  0  0  0  0  0  0  0  0  0
  -26.7067   -9.5040  -30.6833 C   0  0  0  0  0  0  0  0  0  0  0  0
  -26.4453  -10.7900  -30.9183 N   0  0  0  0  0  0  0  0  0  0  0  0
  1  2  2  0
  1  3  1  0
  3  4  1  0
  4  5  1  0
M  END
>  <name>  (6) 
Car Nac Nd0 Car Nd0

>  <indices>  (6) 
[0, 1, 2]

>  <dummy>  (6) 
1

>  <tasks>  (6) 
probe_placing close_aromatic_ring

>  <current_task>  (6) 
close_aromatic_ring

>  <prot_clashes>  (6) 
6

>  <NBS phar>  (6) 
0.2

>  <NBS_non-phar>  (6) 
0.6821233630180359

>  <NBS>  (6) 
0.8821233630180358

>  <source_stage>  (6) 
scored

>  <source_iter>  (6) 
1

>  <source_parent_mol>  (6) 
0

>  <source_scenario>  (6) 
0

>  <source_rank_in_scored_call>  (6) 
7

>  <source_current_task>  (6) 
close_aromatic_ring

>  <rotatable_bond_torsions>  (6) 
1,0,2,3

>  <scenario>  (6) 
0

>  <reason_to_skip>  (6) 
subgraph mismatch

$$$$

     RDKit          3D

  5  4  0  0  0  0  0  0  0  0999 V2000
  -27.8640   -7.4760  -31.1990 C   0  0  0  0  0  0  0  0  0  0  0  0
  -27.5380   -6.7190  -32.2850 N   0  0  0  0  0  0  0  0  0  0  0  0
  -27.6840   -8.8650  -31.2620 N   0  0  0  0  0  0  0  0  0  0  0  0
  -26.7067   -9.5040  -30.6833 C   0  0  0  0  0  0  0  0  0  0  0  0
  -25.8383   -8.7242  -29.9738 N   0  0  0  0  0  0  0  0  0  0  0  0
  1  2  2  0
  1  3  1  0
  3  4  1  0
  4  5  1  0
M  END
>  <name>  (7) 
Car Nac Nd0 Car Nd0

>  <indices>  (7) 
[0, 1, 2]

>  <dummy>  (7) 
1

>  <tasks>  (7) 
probe_placing close_aromatic_ring

>  <current_task>  (7) 
close_aromatic_ring

>  <prot_clashes>  (7) 
6

>  <NBS phar>  (7) 
0.2

>  <NBS_non-phar>  (7) 
0.6821233630180359

>  <NBS>  (7) 
0.8821233630180358

>  <source_stage>  (7) 
scored

>  <source_iter>  (7) 
1

>  <source_parent_mol>  (7) 
0

>  <source_scenario>  (7) 
0

>  <source_rank_in_scored_call>  (7) 
7

>  <source_current_task>  (7) 
close_aromatic_ring

>  <rotatable_bond_torsions>  (7) 
1,0,2,3

>  <scenario>  (7) 
0

>  <reason_to_skip>  (7) 
subgraph mismatch

$$$$

     RDKit          3D

  5  4  0  0  0  0  0  0  0  0999 V2000
  -27.8640   -7.4760  -31.1990 C   0  0  0  0  0  0  0  0  0  0  0  0
  -27.5380   -6.7190  -32.2850 N   0  0  0  0  0  0  0  0  0  0  0  0
  -27.6840   -8.8650  -31.2620 N   0  0  0  0  0  0  0  0  0  0  0  0
  -26.7067   -9.5040  -30.6833 C   0  0  0  0  0  0  0  0  0  0  0  0
  -26.5147  -10.8176  -30.8414 N   0  0  0  0  0  0  0  0  0  0  0  0
  1  2  2  0
  1  3  1  0
  3  4  1  0
  4  5  2  0
M  END
>  <name>  (8) 
Car Nac Nd0 Car Nac

>  <indices>  (8) 
[0, 1, 2]

>  <dummy>  (8) 
1

>  <tasks>  (8) 
probe_placing close_aromatic_ring

>  <current_task>  (8) 
close_aromatic_ring

>  <prot_clashes>  (8) 
6

>  <NBS phar>  (8) 
0.2

>  <NBS_non-phar>  (8) 
0.6821233630180359

>  <NBS>  (8) 
0.8821233630180358

>  <source_stage>  (8) 
scored

>  <source_iter>  (8) 
1

>  <source_parent_mol>  (8) 
0

>  <source_scenario>  (8) 
0

>  <source_rank_in_scored_call>  (8) 
7

>  <source_current_task>  (8) 
close_aromatic_ring

>  <rotatable_bond_torsions>  (8) 
1,0,2,3

>  <scenario>  (8) 
0

>  <reason_to_skip>  (8) 
subgraph mismatch

$$$$

     RDKit          3D

  5  4  0  0  0  0  0  0  0  0999 V2000
  -27.8640   -7.4760  -31.1990 C   0  0  0  0  0  0  0  0  0  0  0  0
  -27.5380   -6.7190  -32.2850 N   0  0  0  0  0  0  0  0  0  0  0  0
  -27.6840   -8.8650  -31.2620 N   0  0  0  0  0  0  0  0  0  0  0  0
  -26.7067   -9.5040  -30.6833 C   0  0  0  0  0  0  0  0  0  0  0  0
  -25.4425   -9.0657  -30.5689 N   0  0  0  0  0  0  0  0  0  0  0  0
  1  2  2  0
  1  3  1  0
  3  4  1  0
  4  5  2  0
M  END
>  <name>  (9) 
Car Nac Nd0 Car Nac

>  <indices>  (9) 
[0, 1, 2]

>  <dummy>  (9) 
1

>  <tasks>  (9) 
probe_placing close_aromatic_ring

>  <current_task>  (9) 
close_aromatic_ring

>  <prot_clashes>  (9) 
6

>  <NBS phar>  (9) 
0.2

>  <NBS_non-phar>  (9) 
0.6821233630180359

>  <NBS>  (9) 
0.8821233630180358

>  <source_stage>  (9) 
scored

>  <source_iter>  (9) 
1

>  <source_parent_mol>  (9) 
0

>  <source_scenario>  (9) 
0

>  <source_rank_in_scored_call>  (9) 
7

>  <source_current_task>  (9) 
close_aromatic_ring

>  <rotatable_bond_torsions>  (9) 
1,0,2,3

>  <scenario>  (9) 
0

>  <reason_to_skip>  (9) 
subgraph mismatch

$$$$

     RDKit          3D

  5  4  0  0  0  0  0  0  0  0999 V2000
  -27.8640   -7.4760  -31.1990 C   0  0  0  0  0  0  0  0  0  0  0  0
  -27.5380   -6.7190  -32.2850 N   0  0  0  0  0  0  0  0  0  0  0  0
  -27.6840   -8.8650  -31.2620 N   0  0  0  0  0  0  0  0  0  0  0  0
  -26.7067   -9.5040  -30.6833 C   0  0  0  0  0  0  0  0  0  0  0  0
  -26.8381  -10.1979  -29.5560 N   0  0  0  0  0  0  0  0  0  0  0  0
  1  2  2  0
  1  3  1  0
  3  4  1  0
  4  5  2  0
M  END
>  <name>  (10) 
Car Nac Nd0 Car Nac

>  <indices>  (10) 
[0, 1, 2]

>  <dummy>  (10) 
1

>  <tasks>  (10) 
probe_placing close_aromatic_ring

>  <current_task>  (10) 
close_aromatic_ring

>  <prot_clashes>  (10) 
6

>  <NBS phar>  (10) 
0.2

>  <NBS_non-phar>  (10) 
0.6821233630180359

>  <NBS>  (10) 
0.8821233630180358

>  <source_stage>  (10) 
scored

>  <source_iter>  (10) 
1

>  <source_parent_mol>  (10) 
0

>  <source_scenario>  (10) 
0

>  <source_rank_in_scored_call>  (10) 
7

>  <source_current_task>  (10) 
close_aromatic_ring

>  <rotatable_bond_torsions>  (10) 
1,0,2,3

>  <scenario>  (10) 
0

>  <reason_to_skip>  (10) 
subgraph mismatch

$$$$

     RDKit          3D

  5  4  0  0  0  0  0  0  0  0999 V2000
  -27.8640   -7.4760  -31.1990 C   0  0  0  0  0  0  0  0  0  0  0  0
  -27.5380   -6.7190  -32.2850 N   0  0  0  0  0  0  0  0  0  0  0  0
  -27.6840   -8.8650  -31.2620 N   0  0  0  0  0  0  0  0  0  0  0  0
  -26.7067   -9.5040  -30.6833 C   0  0  0  0  0  0  0  0  0  0  0  0
  -25.6947   -8.8366  -30.0996 N   0  0  0  0  0  0  0  0  0  0  0  0
  1  2  2  0
  1  3  1  0
  3  4  1  0
  4  5  1  0
M  END
>  <name>  (11) 
Car Nac Nd0 Car Nac

>  <indices>  (11) 
[0, 1, 2]

>  <dummy>  (11) 
1

>  <tasks>  (11) 
probe_placing close_aromatic_ring

>  <current_task>  (11) 
close_aromatic_ring

>  <prot_clashes>  (11) 
6

>  <NBS phar>  (11) 
0.2

>  <NBS_non-phar>  (11) 
0.6821233630180359

>  <NBS>  (11) 
0.8821233630180358

>  <source_stage>  (11) 
scored

>  <source_iter>  (11) 
1

>  <source_parent_mol>  (11) 
0

>  <source_scenario>  (11) 
0

>  <source_rank_in_scored_call>  (11) 
7

>  <source_current_task>  (11) 
close_aromatic_ring

>  <rotatable_bond_torsions>  (11) 
1,0,2,3

>  <scenario>  (11) 
0

>  <reason_to_skip>  (11) 
subgraph mismatch

$$$$

     RDKit          3D

  5  4  0  0  0  0  0  0  0  0999 V2000
  -27.8640   -7.4760  -31.1990 C   0  0  0  0  0  0  0  0  0  0  0  0
  -27.5380   -6.7190  -32.2850 N   0  0  0  0  0  0  0  0  0  0  0  0
  -27.6840   -8.8650  -31.2620 N   0  0  0  0  0  0  0  0  0  0  0  0
  -26.7067   -9.5040  -30.6833 C   0  0  0  0  0  0  0  0  0  0  0  0
  -25.7752  -10.0685  -31.4388 N   0  0  0  0  0  0  0  0  0  0  0  0
  1  2  2  0
  1  3  1  0
  3  4  1  0
  4  5  1  0
M  END
>  <name>  (12) 
Car Nac Nd0 Car Nac

>  <indices>  (12) 
[0, 1, 2]

>  <dummy>  (12) 
1

>  <tasks>  (12) 
probe_placing close_aromatic_ring

>  <current_task>  (12) 
close_aromatic_ring

>  <prot_clashes>  (12) 
6

>  <NBS phar>  (12) 
0.2

>  <NBS_non-phar>  (12) 
0.6821233630180359

>  <NBS>  (12) 
0.8821233630180358

>  <source_stage>  (12) 
scored

>  <source_iter>  (12) 
1

>  <source_parent_mol>  (12) 
0

>  <source_scenario>  (12) 
0

>  <source_rank_in_scored_call>  (12) 
7

>  <source_current_task>  (12) 
close_aromatic_ring

>  <rotatable_bond_torsions>  (12) 
1,0,2,3

>  <scenario>  (12) 
0

>  <reason_to_skip>  (12) 
subgraph mismatch

$$$$

     RDKit          3D

  5  4  0  0  0  0  0  0  0  0999 V2000
  -27.8640   -7.4760  -31.1990 C   0  0  0  0  0  0  0  0  0  0  0  0
  -27.5380   -6.7190  -32.2850 N   0  0  0  0  0  0  0  0  0  0  0  0
  -27.6840   -8.8650  -31.2620 N   0  0  0  0  0  0  0  0  0  0  0  0
  -26.7067   -9.5040  -30.6833 C   0  0  0  0  0  0  0  0  0  0  0  0
  -26.6352   -9.8921  -29.3184 N   0  0  0  0  0  0  0  0  0  0  0  0
  1  2  2  0
  1  3  1  0
  3  4  1  0
  4  5  1  0
M  END
>  <name>  (13) 
Car Nac Nd0 Car Nac

>  <indices>  (13) 
[0, 1, 2]

>  <dummy>  (13) 
1

>  <tasks>  (13) 
probe_placing close_aromatic_ring

>  <current_task>  (13) 
close_aromatic_ring

>  <prot_clashes>  (13) 
6

>  <NBS phar>  (13) 
0.2

>  <NBS_non-phar>  (13) 
0.6821233630180359

>  <NBS>  (13) 
0.8821233630180358

>  <source_stage>  (13) 
scored

>  <source_iter>  (13) 
1

>  <source_parent_mol>  (13) 
0

>  <source_scenario>  (13) 
0

>  <source_rank_in_scored_call>  (13) 
7

>  <source_current_task>  (13) 
close_aromatic_ring

>  <rotatable_bond_torsions>  (13) 
1,0,2,3

>  <scenario>  (13) 
0

>  <reason_to_skip>  (13) 
subgraph mismatch

$$$$

     RDKit          3D

  5  4  0  0  0  0  0  0  0  0999 V2000
  -27.8640   -7.4760  -31.1990 C   0  0  0  0  0  0  0  0  0  0  0  0
  -27.5380   -6.7190  -32.2850 N   0  0  0  0  0  0  0  0  0  0  0  0
  -27.6840   -8.8650  -31.2620 N   0  0  0  0  0  0  0  0  0  0  0  0
  -26.7067   -9.5040  -30.6833 C   0  0  0  0  0  0  0  0  0  0  0  0
  -25.9649   -8.4091  -30.0467 C   0  0  0  0  0  0  0  0  0  0  0  0
  1  2  2  0
  1  3  1  0
  3  4  1  0
  4  5  2  0
M  END
>  <name>  (14) 
Car Nac Nd0 Car Car

>  <indices>  (14) 
[0, 1, 2]

>  <dummy>  (14) 
1

>  <tasks>  (14) 
probe_placing close_aromatic_ring

>  <current_task>  (14) 
close_aromatic_ring

>  <prot_clashes>  (14) 
6

>  <NBS phar>  (14) 
0.2

>  <NBS_non-phar>  (14) 
0.6821233630180359

>  <NBS>  (14) 
0.8821233630180358

>  <source_stage>  (14) 
scored

>  <source_iter>  (14) 
1

>  <source_parent_mol>  (14) 
0

>  <source_scenario>  (14) 
0

>  <source_rank_in_scored_call>  (14) 
7

>  <source_current_task>  (14) 
close_aromatic_ring

>  <rotatable_bond_torsions>  (14) 
1,0,2,3

>  <scenario>  (14) 
0

>  <reason_to_skip>  (14) 
too many clashes (9 with max 8)

$$$$

     RDKit          3D

  5  4  0  0  0  0  0  0  0  0999 V2000
  -27.8640   -7.4760  -31.1990 C   0  0  0  0  0  0  0  0  0  0  0  0
  -27.5380   -6.7190  -32.2850 N   0  0  0  0  0  0  0  0  0  0  0  0
  -27.6840   -8.8650  -31.2620 N   0  0  0  0  0  0  0  0  0  0  0  0
  -26.7067   -9.5040  -30.6833 C   0  0  0  0  0  0  0  0  0  0  0  0
  -25.6913   -8.7143  -29.9095 C   0  0  0  0  0  0  0  0  0  0  0  0
  1  2  2  0
  1  3  1  0
  3  4  1  0
  4  5  1  0
M  END
>  <name>  (15) 
Car Nac Nd0 Car Car

>  <indices>  (15) 
[0, 1, 2]

>  <dummy>  (15) 
1

>  <tasks>  (15) 
probe_placing close_aromatic_ring

>  <current_task>  (15) 
close_aromatic_ring

>  <prot_clashes>  (15) 
6

>  <NBS phar>  (15) 
0.2

>  <NBS_non-phar>  (15) 
0.6821233630180359

>  <NBS>  (15) 
0.8821233630180358

>  <source_stage>  (15) 
scored

>  <source_iter>  (15) 
1

>  <source_parent_mol>  (15) 
0

>  <source_scenario>  (15) 
0

>  <source_rank_in_scored_call>  (15) 
7

>  <source_current_task>  (15) 
close_aromatic_ring

>  <rotatable_bond_torsions>  (15) 
1,0,2,3

>  <scenario>  (15) 
0

>  <reason_to_skip>  (15) 
too many clashes (15 with max 8)

$$$$

     RDKit          3D

  6  5  0  0  0  0  0  0  0  0999 V2000
  -28.3670   -7.7460  -31.9120 C   0  0  0  0  0  0  0  0  0  0  0  0
  -27.6610   -7.1190  -32.8950 N   0  0  0  0  0  0  0  0  0  0  0  0
  -28.0060   -9.0490  -31.5440 N   0  0  0  0  0  0  0  0  0  0  0  0
  -27.3520   -9.3500  -30.4580 C   0  0  0  0  0  0  0  0  0  0  0  0
  -26.9350   -8.2370  -29.5400 C   0  0  0  0  0  0  0  0  0  0  0  0
  -26.2509   -8.5152  -28.2316 C   0  0  0  0  0  0  0  0  0  0  0  0
  1  2  2  0
  1  3  1  0
  3  4  1  0
  4  5  1  0
  5  6  1  0
M  END
>  <name>  (1) 
Car Nac Nd0 Car Car Car

>  <indices>  (1) 
[0, 1, 2]

>  <dummy>  (1) 
1

>  <tasks>  (1) 
probe_placing close_aromatic_ring close_aromatic_ring

>  <current_task>  (1) 
close_aromatic_ring

>  <prot_clashes>  (1) 
6

>  <NBS phar>  (1) 
0.2

>  <NBS_non-phar>  (1) 
0.7955093383789062

>  <NBS>  (1) 
0.9955093383789062

>  <source_stage>  (1) 
scored

>  <source_iter>  (1) 
2

>  <source_parent_mol>  (1) 
3

>  <source_scenario>  (1) 
0 3

>  <source_rank_in_scored_call>  (1) 
0

>  <source_current_task>  (1) 
close_aromatic_ring

>  <rotatable_bond_torsions>  (1) 
1,0,2,3;0,2,3,4

>  <scenario>  (1) 
0 3

>  <reason_to_skip>  (1) 
incorrect arom ring closing

$$$$

     RDKit          3D

  6  5  0  0  0  0  0  0  0  0999 V2000
  -28.3670   -7.7460  -31.9120 C   0  0  0  0  0  0  0  0  0  0  0  0
  -27.6610   -7.1190  -32.8950 N   0  0  0  0  0  0  0  0  0  0  0  0
  -28.0060   -9.0490  -31.5440 N   0  0  0  0  0  0  0  0  0  0  0  0
  -27.3520   -9.3500  -30.4580 C   0  0  0  0  0  0  0  0  0  0  0  0
  -26.9350   -8.2370  -29.5400 C   0  0  0  0  0  0  0  0  0  0  0  0
  -26.0932   -8.5409  -28.3064 C   0  0  0  0  0  0  0  0  0  0  0  0
  1  2  2  0
  1  3  1  0
  3  4  1  0
  4  5  1  0
  5  6  2  0
M  END
>  <name>  (2) 
Car Nac Nd0 Car Car Car

>  <indices>  (2) 
[0, 1, 2]

>  <dummy>  (2) 
1

>  <tasks>  (2) 
probe_placing close_aromatic_ring close_aromatic_ring

>  <current_task>  (2) 
close_aromatic_ring

>  <prot_clashes>  (2) 
6

>  <NBS phar>  (2) 
0.2

>  <NBS_non-phar>  (2) 
0.7955093383789062

>  <NBS>  (2) 
0.9955093383789062

>  <source_stage>  (2) 
scored

>  <source_iter>  (2) 
2

>  <source_parent_mol>  (2) 
3

>  <source_scenario>  (2) 
0 3

>  <source_rank_in_scored_call>  (2) 
0

>  <source_current_task>  (2) 
close_aromatic_ring

>  <rotatable_bond_torsions>  (2) 
1,0,2,3;0,2,3,4

>  <scenario>  (2) 
0 3

>  <reason_to_skip>  (2) 
incorrect arom ring closing

$$$$

     RDKit          3D

  6  5  0  0  0  0  0  0  0  0999 V2000
  -28.3670   -7.7460  -31.9120 C   0  0  0  0  0  0  0  0  0  0  0  0
  -27.6610   -7.1190  -32.8950 N   0  0  0  0  0  0  0  0  0  0  0  0
  -28.0060   -9.0490  -31.5440 N   0  0  0  0  0  0  0  0  0  0  0  0
  -27.3520   -9.3500  -30.4580 C   0  0  0  0  0  0  0  0  0  0  0  0
  -26.9350   -8.2370  -29.5400 C   0  0  0  0  0  0  0  0  0  0  0  0
  -26.3115   -8.9067  -28.4960 N   0  0  0  0  0  0  0  0  0  0  0  0
  1  2  2  0
  1  3  1  0
  3  4  1  0
  4  5  1  0
  5  6  1  0
M  END
>  <name>  (3) 
Car Nac Nd0 Car Car Nac

>  <indices>  (3) 
[0, 1, 2]

>  <dummy>  (3) 
1

>  <tasks>  (3) 
probe_placing close_aromatic_ring close_aromatic_ring

>  <current_task>  (3) 
close_aromatic_ring

>  <prot_clashes>  (3) 
6

>  <NBS phar>  (3) 
0.2

>  <NBS_non-phar>  (3) 
0.7955093383789062

>  <NBS>  (3) 
0.9955093383789062

>  <source_stage>  (3) 
scored

>  <source_iter>  (3) 
2

>  <source_parent_mol>  (3) 
3

>  <source_scenario>  (3) 
0 3

>  <source_rank_in_scored_call>  (3) 
0

>  <source_current_task>  (3) 
close_aromatic_ring

>  <rotatable_bond_torsions>  (3) 
1,0,2,3;0,2,3,4

>  <scenario>  (3) 
0 3

>  <reason_to_skip>  (3) 
incorrect arom ring closing

$$$$

     RDKit          3D

  6  5  0  0  0  0  0  0  0  0999 V2000
  -28.3670   -7.7460  -31.9120 C   0  0  0  0  0  0  0  0  0  0  0  0
  -27.6610   -7.1190  -32.8950 N   0  0  0  0  0  0  0  0  0  0  0  0
  -28.0060   -9.0490  -31.5440 N   0  0  0  0  0  0  0  0  0  0  0  0
  -27.3520   -9.3500  -30.4580 C   0  0  0  0  0  0  0  0  0  0  0  0
  -26.9350   -8.2370  -29.5400 C   0  0  0  0  0  0  0  0  0  0  0  0
  -26.2239   -8.5827  -28.3891 C   0  0  0  0  0  0  0  0  0  0  0  0
  1  2  2  0
  1  3  1  0
  3  4  1  0
  4  5  1  0
  5  6  1  0
M  END
>  <name>  (4) 
Car Nac Nd0 Car Car Car

>  <indices>  (4) 
[0, 1, 2]

>  <dummy>  (4) 
1

>  <tasks>  (4) 
probe_placing close_aromatic_ring close_aromatic_ring

>  <current_task>  (4) 
close_aromatic_ring

>  <prot_clashes>  (4) 
6

>  <NBS phar>  (4) 
0.2

>  <NBS_non-phar>  (4) 
0.7955093383789062

>  <NBS>  (4) 
0.9955093383789062

>  <source_stage>  (4) 
scored

>  <source_iter>  (4) 
2

>  <source_parent_mol>  (4) 
3

>  <source_scenario>  (4) 
0 3

>  <source_rank_in_scored_call>  (4) 
0

>  <source_current_task>  (4) 
close_aromatic_ring

>  <rotatable_bond_torsions>  (4) 
1,0,2,3;0,2,3,4

>  <scenario>  (4) 
0 3

>  <reason_to_skip>  (4) 
incorrect arom ring closing

$$$$

     RDKit          3D

  6  5  0  0  0  0  0  0  0  0999 V2000
  -28.3670   -7.7460  -31.9120 C   0  0  0  0  0  0  0  0  0  0  0  0
  -27.6610   -7.1190  -32.8950 N   0  0  0  0  0  0  0  0  0  0  0  0
  -28.0060   -9.0490  -31.5440 N   0  0  0  0  0  0  0  0  0  0  0  0
  -27.3520   -9.3500  -30.4580 C   0  0  0  0  0  0  0  0  0  0  0  0
  -26.9350   -8.2370  -29.5400 C   0  0  0  0  0  0  0  0  0  0  0  0
  -27.4484   -7.1489  -30.2695 N   0  0  0  0  0  0  0  0  0  0  0  0
  1  2  2  0
  1  3  1  0
  3  4  1  0
  4  5  1  0
  5  6  1  0
M  END
>  <name>  (5) 
Car Nac Nd0 Car Car Nac

>  <indices>  (5) 
[0, 1, 2]

>  <dummy>  (5) 
1

>  <tasks>  (5) 
probe_placing close_aromatic_ring close_aromatic_ring

>  <current_task>  (5) 
close_aromatic_ring

>  <prot_clashes>  (5) 
6

>  <NBS phar>  (5) 
0.2

>  <NBS_non-phar>  (5) 
0.7955093383789062

>  <NBS>  (5) 
0.9955093383789062

>  <source_stage>  (5) 
scored

>  <source_iter>  (5) 
2

>  <source_parent_mol>  (5) 
3

>  <source_scenario>  (5) 
0 3

>  <source_rank_in_scored_call>  (5) 
0

>  <source_current_task>  (5) 
close_aromatic_ring

>  <rotatable_bond_torsions>  (5) 
1,0,2,3;0,2,3,4

>  <scenario>  (5) 
0 3

>  <reason_to_skip>  (5) 
bad angles

$$$$

     RDKit          3D

  6  5  0  0  0  0  0  0  0  0999 V2000
  -28.3670   -7.7460  -31.9120 C   0  0  0  0  0  0  0  0  0  0  0  0
  -27.6610   -7.1190  -32.8950 N   0  0  0  0  0  0  0  0  0  0  0  0
  -28.0060   -9.0490  -31.5440 N   0  0  0  0  0  0  0  0  0  0  0  0
  -27.3520   -9.3500  -30.4580 C   0  0  0  0  0  0  0  0  0  0  0  0
  -26.9350   -8.2370  -29.5400 C   0  0  0  0  0  0  0  0  0  0  0  0
  -27.4823   -7.1447  -30.2723 C   0  0  0  0  0  0  0  0  0  0  0  0
  1  2  2  0
  1  3  1  0
  3  4  1  0
  4  5  1  0
  5  6  1  0
M  END
>  <name>  (6) 
Car Nac Nd0 Car Car Car

>  <indices>  (6) 
[0, 1, 2]

>  <dummy>  (6) 
1

>  <tasks>  (6) 
probe_placing close_aromatic_ring close_aromatic_ring

>  <current_task>  (6) 
close_aromatic_ring

>  <prot_clashes>  (6) 
6

>  <NBS phar>  (6) 
0.2

>  <NBS_non-phar>  (6) 
0.7955093383789062

>  <NBS>  (6) 
0.9955093383789062

>  <source_stage>  (6) 
scored

>  <source_iter>  (6) 
2

>  <source_parent_mol>  (6) 
3

>  <source_scenario>  (6) 
0 3

>  <source_rank_in_scored_call>  (6) 
0

>  <source_current_task>  (6) 
close_aromatic_ring

>  <rotatable_bond_torsions>  (6) 
1,0,2,3;0,2,3,4

>  <scenario>  (6) 
0 3

>  <reason_to_skip>  (6) 
bad angles

$$$$

     RDKit          3D

  6  5  0  0  0  0  0  0  0  0999 V2000
  -28.3670   -7.7460  -31.9120 C   0  0  0  0  0  0  0  0  0  0  0  0
  -27.6610   -7.1190  -32.8950 N   0  0  0  0  0  0  0  0  0  0  0  0
  -28.0060   -9.0490  -31.5440 N   0  0  0  0  0  0  0  0  0  0  0  0
  -27.3520   -9.3500  -30.4580 C   0  0  0  0  0  0  0  0  0  0  0  0
  -26.9350   -8.2370  -29.5400 C   0  0  0  0  0  0  0  0  0  0  0  0
  -27.3090   -8.2160  -28.1572 C   0  0  0  0  0  0  0  0  0  0  0  0
  1  2  2  0
  1  3  1  0
  3  4  1  0
  4  5  1  0
  5  6  2  0
M  END
>  <name>  (7) 
Car Nac Nd0 Car Car Car

>  <indices>  (7) 
[0, 1, 2]

>  <dummy>  (7) 
1

>  <tasks>  (7) 
probe_placing close_aromatic_ring close_aromatic_ring

>  <current_task>  (7) 
close_aromatic_ring

>  <prot_clashes>  (7) 
6

>  <NBS phar>  (7) 
0.2

>  <NBS_non-phar>  (7) 
0.7955093383789062

>  <NBS>  (7) 
0.9955093383789062

>  <source_stage>  (7) 
scored

>  <source_iter>  (7) 
2

>  <source_parent_mol>  (7) 
3

>  <source_scenario>  (7) 
0 3

>  <source_rank_in_scored_call>  (7) 
0

>  <source_current_task>  (7) 
close_aromatic_ring

>  <rotatable_bond_torsions>  (7) 
1,0,2,3;0,2,3,4

>  <scenario>  (7) 
0 3

>  <reason_to_skip>  (7) 
incorrect arom ring closing

$$$$

     RDKit          3D

  6  5  0  0  0  0  0  0  0  0999 V2000
  -28.3670   -7.7460  -31.9120 C   0  0  0  0  0  0  0  0  0  0  0  0
  -27.6610   -7.1190  -32.8950 N   0  0  0  0  0  0  0  0  0  0  0  0
  -28.0060   -9.0490  -31.5440 N   0  0  0  0  0  0  0  0  0  0  0  0
  -27.3520   -9.3500  -30.4580 C   0  0  0  0  0  0  0  0  0  0  0  0
  -26.9350   -8.2370  -29.5400 C   0  0  0  0  0  0  0  0  0  0  0  0
    0.0000    0.0000    0.0000 O   0  0  0  0  0  0  0  0  0  0  0  0
  1  2  2  0
  1  3  1  0
  3  4  1  0
  4  5  1  0
  5  6  1  0
M  END
>  <name>  (8) 
Car Nac Nd0 Car Car O_a

>  <indices>  (8) 
[0, 1, 2]

>  <dummy>  (8) 
1

>  <tasks>  (8) 
probe_placing close_aromatic_ring close_aromatic_ring

>  <current_task>  (8) 
close_aromatic_ring

>  <prot_clashes>  (8) 
6

>  <NBS phar>  (8) 
0.2

>  <NBS_non-phar>  (8) 
0.7955093383789062

>  <NBS>  (8) 
0.9955093383789062

>  <source_stage>  (8) 
scored

>  <source_iter>  (8) 
2

>  <source_parent_mol>  (8) 
3

>  <source_scenario>  (8) 
0 3

>  <source_rank_in_scored_call>  (8) 
0

>  <source_current_task>  (8) 
close_aromatic_ring

>  <rotatable_bond_torsions>  (8) 
1,0,2,3;0,2,3,4

>  <scenario>  (8) 
0 3

>  <reason_to_skip>  (8) 
some_atom_counter_exceeded

$$$$

     RDKit          3D

  6  5  0  0  0  0  0  0  0  0999 V2000
  -28.3670   -7.7460  -31.9120 C   0  0  0  0  0  0  0  0  0  0  0  0
  -27.6610   -7.1190  -32.8950 N   0  0  0  0  0  0  0  0  0  0  0  0
  -28.0060   -9.0490  -31.5440 N   0  0  0  0  0  0  0  0  0  0  0  0
  -27.3520   -9.3500  -30.4580 C   0  0  0  0  0  0  0  0  0  0  0  0
  -26.9350   -8.2370  -29.5400 C   0  0  0  0  0  0  0  0  0  0  0  0
  -26.2609   -8.8109  -28.4913 N   0  0  0  0  0  0  0  0  0  0  0  0
  1  2  2  0
  1  3  1  0
  3  4  1  0
  4  5  1  0
  5  6  2  0
M  END
>  <name>  (9) 
Car Nac Nd0 Car Car Nac

>  <indices>  (9) 
[0, 1, 2]

>  <dummy>  (9) 
1

>  <tasks>  (9) 
probe_placing close_aromatic_ring close_aromatic_ring

>  <current_task>  (9) 
close_aromatic_ring

>  <prot_clashes>  (9) 
6

>  <NBS phar>  (9) 
0.2

>  <NBS_non-phar>  (9) 
0.7955093383789062

>  <NBS>  (9) 
0.9955093383789062

>  <source_stage>  (9) 
scored

>  <source_iter>  (9) 
2

>  <source_parent_mol>  (9) 
3

>  <source_scenario>  (9) 
0 3

>  <source_rank_in_scored_call>  (9) 
0

>  <source_current_task>  (9) 
close_aromatic_ring

>  <rotatable_bond_torsions>  (9) 
1,0,2,3;0,2,3,4

>  <scenario>  (9) 
0 3

>  <reason_to_skip>  (9) 
incorrect arom ring closing

$$$$

     RDKit          3D

  6  5  0  0  0  0  0  0  0  0999 V2000
  -28.3670   -7.7460  -31.9120 C   0  0  0  0  0  0  0  0  0  0  0  0
  -27.6610   -7.1190  -32.8950 N   0  0  0  0  0  0  0  0  0  0  0  0
  -28.0060   -9.0490  -31.5440 N   0  0  0  0  0  0  0  0  0  0  0  0
  -27.3520   -9.3500  -30.4580 C   0  0  0  0  0  0  0  0  0  0  0  0
  -26.9350   -8.2370  -29.5400 C   0  0  0  0  0  0  0  0  0  0  0  0
  -26.2805   -8.1724  -28.3912 N   0  0  0  0  0  0  0  0  0  0  0  0
  1  2  2  0
  1  3  1  0
  3  4  1  0
  4  5  1  0
  5  6  1  0
M  END
>  <name>  (10) 
Car Nac Nd0 Car Car Nd0

>  <indices>  (10) 
[0, 1, 2]

>  <dummy>  (10) 
1

>  <tasks>  (10) 
probe_placing close_aromatic_ring close_aromatic_ring

>  <current_task>  (10) 
close_aromatic_ring

>  <prot_clashes>  (10) 
6

>  <NBS phar>  (10) 
0.2

>  <NBS_non-phar>  (10) 
0.7955093383789062

>  <NBS>  (10) 
0.9955093383789062

>  <source_stage>  (10) 
scored

>  <source_iter>  (10) 
2

>  <source_parent_mol>  (10) 
3

>  <source_scenario>  (10) 
0 3

>  <source_rank_in_scored_call>  (10) 
0

>  <source_current_task>  (10) 
close_aromatic_ring

>  <rotatable_bond_torsions>  (10) 
1,0,2,3;0,2,3,4

>  <scenario>  (10) 
0 3

>  <reason_to_skip>  (10) 
incorrect arom ring closing

$$$$

     RDKit          3D

  6  5  0  0  0  0  0  0  0  0999 V2000
  -28.3670   -7.7460  -31.9120 C   0  0  0  0  0  0  0  0  0  0  0  0
  -27.6610   -7.1190  -32.8950 N   0  0  0  0  0  0  0  0  0  0  0  0
  -28.0060   -9.0490  -31.5440 N   0  0  0  0  0  0  0  0  0  0  0  0
  -27.3520   -9.3500  -30.4580 C   0  0  0  0  0  0  0  0  0  0  0  0
  -26.9350   -8.2370  -29.5400 C   0  0  0  0  0  0  0  0  0  0  0  0
  -26.2598   -8.5283  -28.3908 N   0  0  0  0  0  0  0  0  0  0  0  0
  1  2  2  0
  1  3  1  0
  3  4  1  0
  4  5  1  0
  5  6  1  0
M  END
>  <name>  (11) 
Car Nac Nd0 Car Car Nac

>  <indices>  (11) 
[0, 1, 2]

>  <dummy>  (11) 
1

>  <tasks>  (11) 
probe_placing close_aromatic_ring close_aromatic_ring

>  <current_task>  (11) 
close_aromatic_ring

>  <prot_clashes>  (11) 
6

>  <NBS phar>  (11) 
0.2

>  <NBS_non-phar>  (11) 
0.7955093383789062

>  <NBS>  (11) 
0.9955093383789062

>  <source_stage>  (11) 
scored

>  <source_iter>  (11) 
2

>  <source_parent_mol>  (11) 
3

>  <source_scenario>  (11) 
0 3

>  <source_rank_in_scored_call>  (11) 
0

>  <source_current_task>  (11) 
close_aromatic_ring

>  <rotatable_bond_torsions>  (11) 
1,0,2,3;0,2,3,4

>  <scenario>  (11) 
0 3

>  <reason_to_skip>  (11) 
incorrect arom ring closing

$$$$

     RDKit          3D

  6  5  0  0  0  0  0  0  0  0999 V2000
  -28.3670   -7.7460  -31.9120 C   0  0  0  0  0  0  0  0  0  0  0  0
  -27.6610   -7.1190  -32.8950 N   0  0  0  0  0  0  0  0  0  0  0  0
  -28.0060   -9.0490  -31.5440 N   0  0  0  0  0  0  0  0  0  0  0  0
  -27.3520   -9.3500  -30.4580 C   0  0  0  0  0  0  0  0  0  0  0  0
  -26.9350   -8.2370  -29.5400 C   0  0  0  0  0  0  0  0  0  0  0  0
    0.0000    0.0000    0.0000 O   0  0  0  0  0  0  0  0  0  0  0  0
  1  2  2  0
  1  3  1  0
  3  4  1  0
  4  5  1  0
  5  6  1  0
M  END
>  <name>  (12) 
Car Nac Nd0 Car Car O_a

>  <indices>  (12) 
[0, 1, 2]

>  <dummy>  (12) 
1

>  <tasks>  (12) 
probe_placing close_aromatic_ring close_aromatic_ring

>  <current_task>  (12) 
close_aromatic_ring

>  <prot_clashes>  (12) 
6

>  <NBS phar>  (12) 
0.2

>  <NBS_non-phar>  (12) 
0.7955093383789062

>  <NBS>  (12) 
0.9955093383789062

>  <source_stage>  (12) 
scored

>  <source_iter>  (12) 
2

>  <source_parent_mol>  (12) 
3

>  <source_scenario>  (12) 
0 3

>  <source_rank_in_scored_call>  (12) 
0

>  <source_current_task>  (12) 
close_aromatic_ring

>  <rotatable_bond_torsions>  (12) 
1,0,2,3;0,2,3,4

>  <scenario>  (12) 
0 3

>  <reason_to_skip>  (12) 
some_atom_counter_exceeded

$$$$

     RDKit          3D

  6  5  0  0  0  0  0  0  0  0999 V2000
  -28.3670   -7.7460  -31.9120 C   0  0  0  0  0  0  0  0  0  0  0  0
  -27.6610   -7.1190  -32.8950 N   0  0  0  0  0  0  0  0  0  0  0  0
  -28.0060   -9.0490  -31.5440 N   0  0  0  0  0  0  0  0  0  0  0  0
  -27.3520   -9.3500  -30.4580 C   0  0  0  0  0  0  0  0  0  0  0  0
  -26.9350   -8.2370  -29.5400 C   0  0  0  0  0  0  0  0  0  0  0  0
  -27.8453   -8.0967  -28.4865 C   0  0  0  0  0  0  0  0  0  0  0  0
  1  2  2  0
  1  3  1  0
  3  4  1  0
  4  5  1  0
  5  6  1  0
M  END
>  <name>  (13) 
Car Nac Nd0 Car Car Car

>  <indices>  (13) 
[0, 1, 2]

>  <dummy>  (13) 
1

>  <tasks>  (13) 
probe_placing close_aromatic_ring close_aromatic_ring

>  <current_task>  (13) 
close_aromatic_ring

>  <prot_clashes>  (13) 
6

>  <NBS phar>  (13) 
0.2

>  <NBS_non-phar>  (13) 
0.7955093383789062

>  <NBS>  (13) 
0.9955093383789062

>  <source_stage>  (13) 
scored

>  <source_iter>  (13) 
2

>  <source_parent_mol>  (13) 
3

>  <source_scenario>  (13) 
0 3

>  <source_rank_in_scored_call>  (13) 
0

>  <source_current_task>  (13) 
close_aromatic_ring

>  <rotatable_bond_torsions>  (13) 
1,0,2,3;0,2,3,4

>  <scenario>  (13) 
0 3

>  <reason_to_skip>  (13) 
incorrect arom ring closing

$$$$

     RDKit          3D

  6  5  0  0  0  0  0  0  0  0999 V2000
  -28.3670   -7.7460  -31.9120 C   0  0  0  0  0  0  0  0  0  0  0  0
  -27.6610   -7.1190  -32.8950 N   0  0  0  0  0  0  0  0  0  0  0  0
  -28.0060   -9.0490  -31.5440 N   0  0  0  0  0  0  0  0  0  0  0  0
  -27.3520   -9.3500  -30.4580 C   0  0  0  0  0  0  0  0  0  0  0  0
  -26.9350   -8.2370  -29.5400 C   0  0  0  0  0  0  0  0  0  0  0  0
  -26.2972   -8.5503  -28.4498 N   0  0  0  0  0  0  0  0  0  0  0  0
  1  2  2  0
  1  3  1  0
  3  4  1  0
  4  5  1  0
  5  6  1  0
M  END
>  <name>  (14) 
Car Nac Nd0 Car Car Nd0

>  <indices>  (14) 
[0, 1, 2]

>  <dummy>  (14) 
1

>  <tasks>  (14) 
probe_placing close_aromatic_ring close_aromatic_ring

>  <current_task>  (14) 
close_aromatic_ring

>  <prot_clashes>  (14) 
6

>  <NBS phar>  (14) 
0.2

>  <NBS_non-phar>  (14) 
0.7955093383789062

>  <NBS>  (14) 
0.9955093383789062

>  <source_stage>  (14) 
scored

>  <source_iter>  (14) 
2

>  <source_parent_mol>  (14) 
3

>  <source_scenario>  (14) 
0 3

>  <source_rank_in_scored_call>  (14) 
0

>  <source_current_task>  (14) 
close_aromatic_ring

>  <rotatable_bond_torsions>  (14) 
1,0,2,3;0,2,3,4

>  <scenario>  (14) 
0 3

>  <reason_to_skip>  (14) 
incorrect arom ring closing

$$$$

     RDKit          3D

  6  5  0  0  0  0  0  0  0  0999 V2000
  -28.3670   -7.7460  -31.9120 C   0  0  0  0  0  0  0  0  0  0  0  0
  -27.6610   -7.1190  -32.8950 N   0  0  0  0  0  0  0  0  0  0  0  0
  -28.0060   -9.0490  -31.5440 N   0  0  0  0  0  0  0  0  0  0  0  0
  -27.3520   -9.3500  -30.4580 C   0  0  0  0  0  0  0  0  0  0  0  0
  -26.9350   -8.2370  -29.5400 C   0  0  0  0  0  0  0  0  0  0  0  0
    0.0000    0.0000    0.0000 S   0  0  0  0  0  0  0  0  0  0  0  0
  1  2  2  0
  1  3  1  0
  3  4  1  0
  4  5  1  0
  5  6  1  0
M  END
>  <name>  (15) 
Car Nac Nd0 Car Car Sul

>  <indices>  (15) 
[0, 1, 2]

>  <dummy>  (15) 
1

>  <tasks>  (15) 
probe_placing close_aromatic_ring close_aromatic_ring

>  <current_task>  (15) 
close_aromatic_ring

>  <prot_clashes>  (15) 
6

>  <NBS phar>  (15) 
0.2

>  <NBS_non-phar>  (15) 
0.7955093383789062

>  <NBS>  (15) 
0.9955093383789062

>  <source_stage>  (15) 
scored

>  <source_iter>  (15) 
2

>  <source_parent_mol>  (15) 
3

>  <source_scenario>  (15) 
0 3

>  <source_rank_in_scored_call>  (15) 
0

>  <source_current_task>  (15) 
close_aromatic_ring

>  <rotatable_bond_torsions>  (15) 
1,0,2,3;0,2,3,4

>  <scenario>  (15) 
0 3

>  <reason_to_skip>  (15) 
some_atom_counter_exceeded

$$$$

     RDKit          3D

  6  5  0  0  0  0  0  0  0  0999 V2000
  -28.3670   -7.7460  -31.9120 C   0  0  0  0  0  0  0  0  0  0  0  0
  -27.6610   -7.1190  -32.8950 N   0  0  0  0  0  0  0  0  0  0  0  0
  -28.0060   -9.0490  -31.5440 N   0  0  0  0  0  0  0  0  0  0  0  0
  -27.3520   -9.3500  -30.4580 C   0  0  0  0  0  0  0  0  0  0  0  0
  -26.9350   -8.2370  -29.5400 C   0  0  0  0  0  0  0  0  0  0  0  0
  -27.5783   -8.0080  -28.2901 C   0  0  0  0  0  0  0  0  0  0  0  0
  1  2  2  0
  1  3  1  0
  3  4  1  0
  4  5  1  0
  5  6  1  0
M  END
>  <name>  (16) 
Car Nac Nd0 Car Car Car

>  <indices>  (16) 
[0, 1, 2]

>  <dummy>  (16) 
1

>  <tasks>  (16) 
probe_placing close_aromatic_ring close_aromatic_ring

>  <current_task>  (16) 
close_aromatic_ring

>  <prot_clashes>  (16) 
6

>  <NBS phar>  (16) 
0.2

>  <NBS_non-phar>  (16) 
0.7955093383789062

>  <NBS>  (16) 
0.9955093383789062

>  <source_stage>  (16) 
scored

>  <source_iter>  (16) 
2

>  <source_parent_mol>  (16) 
3

>  <source_scenario>  (16) 
0 3

>  <source_rank_in_scored_call>  (16) 
0

>  <source_current_task>  (16) 
close_aromatic_ring

>  <rotatable_bond_torsions>  (16) 
1,0,2,3;0,2,3,4

>  <scenario>  (16) 
0 3

>  <reason_to_skip>  (16) 
incorrect arom ring closing

$$$$

     RDKit          3D

  6  5  0  0  0  0  0  0  0  0999 V2000
  -28.3670   -7.7460  -31.9120 C   0  0  0  0  0  0  0  0  0  0  0  0
  -27.6610   -7.1190  -32.8950 N   0  0  0  0  0  0  0  0  0  0  0  0
  -28.0060   -9.0490  -31.5440 N   0  0  0  0  0  0  0  0  0  0  0  0
  -27.3520   -9.3500  -30.4580 C   0  0  0  0  0  0  0  0  0  0  0  0
  -26.9350   -8.2370  -29.5400 C   0  0  0  0  0  0  0  0  0  0  0  0
    0.0000    0.0000    0.0000 O   0  0  0  0  0  0  0  0  0  0  0  0
  1  2  2  0
  1  3  1  0
  3  4  1  0
  4  5  1  0
  5  6  1  0
M  END
>  <name>  (17) 
Car Nac Nd0 Car Car O_a

>  <indices>  (17) 
[0, 1, 2]

>  <dummy>  (17) 
1

>  <tasks>  (17) 
probe_placing close_aromatic_ring close_aromatic_ring

>  <current_task>  (17) 
close_aromatic_ring

>  <prot_clashes>  (17) 
6

>  <NBS phar>  (17) 
0.2

>  <NBS_non-phar>  (17) 
0.7955093383789062

>  <NBS>  (17) 
0.9955093383789062

>  <source_stage>  (17) 
scored

>  <source_iter>  (17) 
2

>  <source_parent_mol>  (17) 
3

>  <source_scenario>  (17) 
0 3

>  <source_rank_in_scored_call>  (17) 
0

>  <source_current_task>  (17) 
close_aromatic_ring

>  <rotatable_bond_torsions>  (17) 
1,0,2,3;0,2,3,4

>  <scenario>  (17) 
0 3

>  <reason_to_skip>  (17) 
some_atom_counter_exceeded

$$$$

     RDKit          3D

  6  5  0  0  0  0  0  0  0  0999 V2000
  -28.3670   -7.7460  -31.9120 C   0  0  0  0  0  0  0  0  0  0  0  0
  -27.6610   -7.1190  -32.8950 N   0  0  0  0  0  0  0  0  0  0  0  0
  -28.0060   -9.0490  -31.5440 N   0  0  0  0  0  0  0  0  0  0  0  0
  -27.3520   -9.3500  -30.4580 C   0  0  0  0  0  0  0  0  0  0  0  0
  -26.9350   -8.2370  -29.5400 C   0  0  0  0  0  0  0  0  0  0  0  0
    0.0000    0.0000    0.0000 S   0  0  0  0  0  0  0  0  0  0  0  0
  1  2  2  0
  1  3  1  0
  3  4  1  0
  4  5  1  0
  5  6  1  0
M  END
>  <name>  (18) 
Car Nac Nd0 Car Car Sul

>  <indices>  (18) 
[0, 1, 2]

>  <dummy>  (18) 
1

>  <tasks>  (18) 
probe_placing close_aromatic_ring close_aromatic_ring

>  <current_task>  (18) 
close_aromatic_ring

>  <prot_clashes>  (18) 
6

>  <NBS phar>  (18) 
0.2

>  <NBS_non-phar>  (18) 
0.7955093383789062

>  <NBS>  (18) 
0.9955093383789062

>  <source_stage>  (18) 
scored

>  <source_iter>  (18) 
2

>  <source_parent_mol>  (18) 
3

>  <source_scenario>  (18) 
0 3

>  <source_rank_in_scored_call>  (18) 
0

>  <source_current_task>  (18) 
close_aromatic_ring

>  <rotatable_bond_torsions>  (18) 
1,0,2,3;0,2,3,4

>  <scenario>  (18) 
0 3

>  <reason_to_skip>  (18) 
some_atom_counter_exceeded

$$$$

     RDKit          3D

  6  5  0  0  0  0  0  0  0  0999 V2000
  -28.3670   -7.7460  -31.9120 C   0  0  0  0  0  0  0  0  0  0  0  0
  -27.6610   -7.1190  -32.8950 N   0  0  0  0  0  0  0  0  0  0  0  0
  -28.0060   -9.0490  -31.5440 N   0  0  0  0  0  0  0  0  0  0  0  0
  -27.3520   -9.3500  -30.4580 C   0  0  0  0  0  0  0  0  0  0  0  0
  -26.9350   -8.2370  -29.5400 C   0  0  0  0  0  0  0  0  0  0  0  0
    0.0000    0.0000    0.0000 S   0  0  0  0  0  0  0  0  0  0  0  0
  1  2  2  0
  1  3  1  0
  3  4  1  0
  4  5  1  0
  5  6  1  0
M  END
>  <name>  (19) 
Car Nac Nd0 Car Car Sul

>  <indices>  (19) 
[0, 1, 2]

>  <dummy>  (19) 
1

>  <tasks>  (19) 
probe_placing close_aromatic_ring close_aromatic_ring

>  <current_task>  (19) 
close_aromatic_ring

>  <prot_clashes>  (19) 
6

>  <NBS phar>  (19) 
0.2

>  <NBS_non-phar>  (19) 
0.7955093383789062

>  <NBS>  (19) 
0.9955093383789062

>  <source_stage>  (19) 
scored

>  <source_iter>  (19) 
2

>  <source_parent_mol>  (19) 
3

>  <source_scenario>  (19) 
0 3

>  <source_rank_in_scored_call>  (19) 
0

>  <source_current_task>  (19) 
close_aromatic_ring

>  <rotatable_bond_torsions>  (19) 
1,0,2,3;0,2,3,4

>  <scenario>  (19) 
0 3

>  <reason_to_skip>  (19) 
some_atom_counter_exceeded

$$$$

     RDKit          3D

  6  5  0  0  0  0  0  0  0  0999 V2000
  -28.3670   -7.7460  -31.9120 C   0  0  0  0  0  0  0  0  0  0  0  0
  -27.6610   -7.1190  -32.8950 N   0  0  0  0  0  0  0  0  0  0  0  0
  -28.0060   -9.0490  -31.5440 N   0  0  0  0  0  0  0  0  0  0  0  0
  -27.3520   -9.3500  -30.4580 C   0  0  0  0  0  0  0  0  0  0  0  0
  -26.9350   -8.2370  -29.5400 C   0  0  0  0  0  0  0  0  0  0  0  0
  -25.5936   -8.0590  -29.4306 C   0  0  0  0  0  0  0  0  0  0  0  0
  1  2  2  0
  1  3  1  0
  3  4  1  0
  4  5  1  0
  5  6  2  0
M  END
>  <name>  (20) 
Car Nac Nd0 Car Car Car

>  <indices>  (20) 
[0, 1, 2]

>  <dummy>  (20) 
1

>  <tasks>  (20) 
probe_placing close_aromatic_ring close_aromatic_ring

>  <current_task>  (20) 
close_aromatic_ring

>  <prot_clashes>  (20) 
6

>  <NBS phar>  (20) 
0.2

>  <NBS_non-phar>  (20) 
0.7955093383789062

>  <NBS>  (20) 
0.9955093383789062

>  <source_stage>  (20) 
scored

>  <source_iter>  (20) 
2

>  <source_parent_mol>  (20) 
3

>  <source_scenario>  (20) 
0 3

>  <source_rank_in_scored_call>  (20) 
0

>  <source_current_task>  (20) 
close_aromatic_ring

>  <rotatable_bond_torsions>  (20) 
1,0,2,3;0,2,3,4

>  <scenario>  (20) 
0 3

>  <reason_to_skip>  (20) 
incorrect arom ring closing

$$$$

     RDKit          3D

  6  5  0  0  0  0  0  0  0  0999 V2000
  -28.3670   -7.7460  -31.9120 C   0  0  0  0  0  0  0  0  0  0  0  0
  -27.6610   -7.1190  -32.8950 N   0  0  0  0  0  0  0  0  0  0  0  0
  -28.0060   -9.0490  -31.5440 N   0  0  0  0  0  0  0  0  0  0  0  0
  -27.3520   -9.3500  -30.4580 C   0  0  0  0  0  0  0  0  0  0  0  0
  -26.9350   -8.2370  -29.5400 C   0  0  0  0  0  0  0  0  0  0  0  0
    0.0000    0.0000    0.0000 S   0  0  0  0  0  0  0  0  0  0  0  0
  1  2  2  0
  1  3  1  0
  3  4  1  0
  4  5  1  0
  5  6  1  0
M  END
>  <name>  (21) 
Car Nac Nd0 Car Car Sul

>  <indices>  (21) 
[0, 1, 2]

>  <dummy>  (21) 
1

>  <tasks>  (21) 
probe_placing close_aromatic_ring close_aromatic_ring

>  <current_task>  (21) 
close_aromatic_ring

>  <prot_clashes>  (21) 
6

>  <NBS phar>  (21) 
0.2

>  <NBS_non-phar>  (21) 
0.7955093383789062

>  <NBS>  (21) 
0.9955093383789062

>  <source_stage>  (21) 
scored

>  <source_iter>  (21) 
2

>  <source_parent_mol>  (21) 
3

>  <source_scenario>  (21) 
0 3

>  <source_rank_in_scored_call>  (21) 
0

>  <source_current_task>  (21) 
close_aromatic_ring

>  <rotatable_bond_torsions>  (21) 
1,0,2,3;0,2,3,4

>  <scenario>  (21) 
0 3

>  <reason_to_skip>  (21) 
some_atom_counter_exceeded

$$$$

     RDKit          3D

  6  5  0  0  0  0  0  0  0  0999 V2000
  -28.3670   -7.7460  -31.9120 C   0  0  0  0  0  0  0  0  0  0  0  0
  -27.6610   -7.1190  -32.8950 N   0  0  0  0  0  0  0  0  0  0  0  0
  -28.0060   -9.0490  -31.5440 N   0  0  0  0  0  0  0  0  0  0  0  0
  -27.3520   -9.3500  -30.4580 C   0  0  0  0  0  0  0  0  0  0  0  0
  -26.9350   -8.2370  -29.5400 C   0  0  0  0  0  0  0  0  0  0  0  0
    0.0000    0.0000    0.0000 O   0  0  0  0  0  0  0  0  0  0  0  0
  1  2  2  0
  1  3  1  0
  3  4  1  0
  4  5  1  0
  5  6  1  0
M  END
>  <name>  (22) 
Car Nac Nd0 Car Car O_a

>  <indices>  (22) 
[0, 1, 2]

>  <dummy>  (22) 
1

>  <tasks>  (22) 
probe_placing close_aromatic_ring close_aromatic_ring

>  <current_task>  (22) 
close_aromatic_ring

>  <prot_clashes>  (22) 
6

>  <NBS phar>  (22) 
0.2

>  <NBS_non-phar>  (22) 
0.7955093383789062

>  <NBS>  (22) 
0.9955093383789062

>  <source_stage>  (22) 
scored

>  <source_iter>  (22) 
2

>  <source_parent_mol>  (22) 
3

>  <source_scenario>  (22) 
0 3

>  <source_rank_in_scored_call>  (22) 
0

>  <source_current_task>  (22) 
close_aromatic_ring

>  <rotatable_bond_torsions>  (22) 
1,0,2,3;0,2,3,4

>  <scenario>  (22) 
0 3

>  <reason_to_skip>  (22) 
some_atom_counter_exceeded

$$$$

     RDKit          3D

  6  5  0  0  0  0  0  0  0  0999 V2000
  -28.3670   -7.7460  -31.9120 C   0  0  0  0  0  0  0  0  0  0  0  0
  -27.6610   -7.1190  -32.8950 N   0  0  0  0  0  0  0  0  0  0  0  0
  -28.0060   -9.0490  -31.5440 N   0  0  0  0  0  0  0  0  0  0  0  0
  -27.3520   -9.3500  -30.4580 C   0  0  0  0  0  0  0  0  0  0  0  0
  -26.9350   -8.2370  -29.5400 C   0  0  0  0  0  0  0  0  0  0  0  0
    0.0000    0.0000    0.0000 S   0  0  0  0  0  0  0  0  0  0  0  0
  1  2  2  0
  1  3  1  0
  3  4  1  0
  4  5  1  0
  5  6  1  0
M  END
>  <name>  (23) 
Car Nac Nd0 Car Car Sul

>  <indices>  (23) 
[0, 1, 2]

>  <dummy>  (23) 
1

>  <tasks>  (23) 
probe_placing close_aromatic_ring close_aromatic_ring

>  <current_task>  (23) 
close_aromatic_ring

>  <prot_clashes>  (23) 
6

>  <NBS phar>  (23) 
0.2

>  <NBS_non-phar>  (23) 
0.7955093383789062

>  <NBS>  (23) 
0.9955093383789062

>  <source_stage>  (23) 
scored

>  <source_iter>  (23) 
2

>  <source_parent_mol>  (23) 
3

>  <source_scenario>  (23) 
0 3

>  <source_rank_in_scored_call>  (23) 
0

>  <source_current_task>  (23) 
close_aromatic_ring

>  <rotatable_bond_torsions>  (23) 
1,0,2,3;0,2,3,4

>  <scenario>  (23) 
0 3

>  <reason_to_skip>  (23) 
some_atom_counter_exceeded

$$$$

     RDKit          3D

  6  5  0  0  0  0  0  0  0  0999 V2000
  -28.3670   -7.7460  -31.9120 C   0  0  0  0  0  0  0  0  0  0  0  0
  -27.6610   -7.1190  -32.8950 N   0  0  0  0  0  0  0  0  0  0  0  0
  -28.0060   -9.0490  -31.5440 N   0  0  0  0  0  0  0  0  0  0  0  0
  -27.3520   -9.3500  -30.4580 C   0  0  0  0  0  0  0  0  0  0  0  0
  -26.9350   -8.2370  -29.5400 C   0  0  0  0  0  0  0  0  0  0  0  0
    0.0000    0.0000    0.0000 S   0  0  0  0  0  0  0  0  0  0  0  0
  1  2  2  0
  1  3  1  0
  3  4  1  0
  4  5  1  0
  5  6  1  0
M  END
>  <name>  (24) 
Car Nac Nd0 Car Car Sul

>  <indices>  (24) 
[0, 1, 2]

>  <dummy>  (24) 
1

>  <tasks>  (24) 
probe_placing close_aromatic_ring close_aromatic_ring

>  <current_task>  (24) 
close_aromatic_ring

>  <prot_clashes>  (24) 
6

>  <NBS phar>  (24) 
0.2

>  <NBS_non-phar>  (24) 
0.7955093383789062

>  <NBS>  (24) 
0.9955093383789062

>  <source_stage>  (24) 
scored

>  <source_iter>  (24) 
2

>  <source_parent_mol>  (24) 
3

>  <source_scenario>  (24) 
0 3

>  <source_rank_in_scored_call>  (24) 
0

>  <source_current_task>  (24) 
close_aromatic_ring

>  <rotatable_bond_torsions>  (24) 
1,0,2,3;0,2,3,4

>  <scenario>  (24) 
0 3

>  <reason_to_skip>  (24) 
some_atom_counter_exceeded

$$$$

     RDKit          3D

  6  5  0  0  0  0  0  0  0  0999 V2000
  -28.3670   -7.7460  -31.9120 C   0  0  0  0  0  0  0  0  0  0  0  0
  -27.6610   -7.1190  -32.8950 N   0  0  0  0  0  0  0  0  0  0  0  0
  -28.0060   -9.0490  -31.5440 N   0  0  0  0  0  0  0  0  0  0  0  0
  -27.3520   -9.3500  -30.4580 C   0  0  0  0  0  0  0  0  0  0  0  0
  -26.9350   -8.2370  -29.5400 C   0  0  0  0  0  0  0  0  0  0  0  0
  -25.5929   -8.0247  -29.2879 C   0  0  0  0  0  0  0  0  0  0  0  0
  1  2  2  0
  1  3  1  0
  3  4  1  0
  4  5  1  0
  5  6  1  0
M  END
>  <name>  (25) 
Car Nac Nd0 Car Car Car

>  <indices>  (25) 
[0, 1, 2]

>  <dummy>  (25) 
1

>  <tasks>  (25) 
probe_placing close_aromatic_ring close_aromatic_ring

>  <current_task>  (25) 
close_aromatic_ring

>  <prot_clashes>  (25) 
6

>  <NBS phar>  (25) 
0.2

>  <NBS_non-phar>  (25) 
0.7955093383789062

>  <NBS>  (25) 
0.9955093383789062

>  <source_stage>  (25) 
scored

>  <source_iter>  (25) 
2

>  <source_parent_mol>  (25) 
3

>  <source_scenario>  (25) 
0 3

>  <source_rank_in_scored_call>  (25) 
0

>  <source_current_task>  (25) 
close_aromatic_ring

>  <rotatable_bond_torsions>  (25) 
1,0,2,3;0,2,3,4

>  <scenario>  (25) 
0 3

>  <reason_to_skip>  (25) 
incorrect arom ring closing

$$$$

     RDKit          3D

  6  5  0  0  0  0  0  0  0  0999 V2000
  -28.3670   -7.7460  -31.9120 C   0  0  0  0  0  0  0  0  0  0  0  0
  -27.6610   -7.1190  -32.8950 N   0  0  0  0  0  0  0  0  0  0  0  0
  -28.0060   -9.0490  -31.5440 N   0  0  0  0  0  0  0  0  0  0  0  0
  -27.3520   -9.3500  -30.4580 C   0  0  0  0  0  0  0  0  0  0  0  0
  -26.9350   -8.2370  -29.5400 C   0  0  0  0  0  0  0  0  0  0  0  0
  -25.5434   -7.6358  -29.7432 C   0  0  0  0  0  0  0  0  0  0  0  0
  1  2  2  0
  1  3  1  0
  3  4  1  0
  4  5  1  0
  5  6  1  0
M  END
>  <name>  (26) 
Car Nac Nd0 Car Car Car

>  <indices>  (26) 
[0, 1, 2]

>  <dummy>  (26) 
1

>  <tasks>  (26) 
probe_placing close_aromatic_ring close_aromatic_ring

>  <current_task>  (26) 
close_aromatic_ring

>  <prot_clashes>  (26) 
6

>  <NBS phar>  (26) 
0.2

>  <NBS_non-phar>  (26) 
0.7955093383789062

>  <NBS>  (26) 
0.9955093383789062

>  <source_stage>  (26) 
scored

>  <source_iter>  (26) 
2

>  <source_parent_mol>  (26) 
3

>  <source_scenario>  (26) 
0 3

>  <source_rank_in_scored_call>  (26) 
0

>  <source_current_task>  (26) 
close_aromatic_ring

>  <rotatable_bond_torsions>  (26) 
1,0,2,3;0,2,3,4

>  <scenario>  (26) 
0 3

>  <reason_to_skip>  (26) 
incorrect arom ring closing

$$$$

     RDKit          3D

  6  5  0  0  0  0  0  0  0  0999 V2000
  -28.3670   -7.7460  -31.9120 C   0  0  0  0  0  0  0  0  0  0  0  0
  -27.6610   -7.1190  -32.8950 N   0  0  0  0  0  0  0  0  0  0  0  0
  -28.0060   -9.0490  -31.5440 N   0  0  0  0  0  0  0  0  0  0  0  0
  -27.3520   -9.3500  -30.4580 C   0  0  0  0  0  0  0  0  0  0  0  0
  -26.9350   -8.2370  -29.5400 C   0  0  0  0  0  0  0  0  0  0  0  0
  -27.1602   -6.9399  -29.7164 N   0  0  0  0  0  0  0  0  0  0  0  0
  1  2  2  0
  1  3  1  0
  3  4  1  0
  4  5  1  0
  5  6  1  0
M  END
>  <name>  (27) 
Car Nac Nd0 Car Car Nac

>  <indices>  (27) 
[0, 1, 2]

>  <dummy>  (27) 
1

>  <tasks>  (27) 
probe_placing close_aromatic_ring close_aromatic_ring

>  <current_task>  (27) 
close_aromatic_ring

>  <prot_clashes>  (27) 
6

>  <NBS phar>  (27) 
0.2

>  <NBS_non-phar>  (27) 
0.7955093383789062

>  <NBS>  (27) 
0.9955093383789062

>  <source_stage>  (27) 
scored

>  <source_iter>  (27) 
2

>  <source_parent_mol>  (27) 
3

>  <source_scenario>  (27) 
0 3

>  <source_rank_in_scored_call>  (27) 
0

>  <source_current_task>  (27) 
close_aromatic_ring

>  <rotatable_bond_torsions>  (27) 
1,0,2,3;0,2,3,4

>  <scenario>  (27) 
0 3

>  <reason_to_skip>  (27) 
subgraph mismatch

$$$$

     RDKit          3D

  6  5  0  0  0  0  0  0  0  0999 V2000
  -28.3670   -7.7460  -31.9120 C   0  0  0  0  0  0  0  0  0  0  0  0
  -27.6610   -7.1190  -32.8950 N   0  0  0  0  0  0  0  0  0  0  0  0
  -28.0060   -9.0490  -31.5440 N   0  0  0  0  0  0  0  0  0  0  0  0
  -27.3520   -9.3500  -30.4580 C   0  0  0  0  0  0  0  0  0  0  0  0
  -26.9350   -8.2370  -29.5400 C   0  0  0  0  0  0  0  0  0  0  0  0
  -27.1287   -6.8254  -29.5747 C   0  0  0  0  0  0  0  0  0  0  0  0
  1  2  2  0
  1  3  1  0
  3  4  1  0
  4  5  1  0
  5  6  1  0
M  END
>  <name>  (28) 
Car Nac Nd0 Car Car Car

>  <indices>  (28) 
[0, 1, 2]

>  <dummy>  (28) 
1

>  <tasks>  (28) 
probe_placing close_aromatic_ring close_aromatic_ring

>  <current_task>  (28) 
close_aromatic_ring

>  <prot_clashes>  (28) 
6

>  <NBS phar>  (28) 
0.2

>  <NBS_non-phar>  (28) 
0.7955093383789062

>  <NBS>  (28) 
0.9955093383789062

>  <source_stage>  (28) 
scored

>  <source_iter>  (28) 
2

>  <source_parent_mol>  (28) 
3

>  <source_scenario>  (28) 
0 3

>  <source_rank_in_scored_call>  (28) 
0

>  <source_current_task>  (28) 
close_aromatic_ring

>  <rotatable_bond_torsions>  (28) 
1,0,2,3;0,2,3,4

>  <scenario>  (28) 
0 3

>  <reason_to_skip>  (28) 
subgraph mismatch

$$$$

     RDKit          3D

  6  5  0  0  0  0  0  0  0  0999 V2000
  -28.3670   -7.7460  -31.9120 C   0  0  0  0  0  0  0  0  0  0  0  0
  -27.6610   -7.1190  -32.8950 N   0  0  0  0  0  0  0  0  0  0  0  0
  -28.0060   -9.0490  -31.5440 N   0  0  0  0  0  0  0  0  0  0  0  0
  -27.3520   -9.3500  -30.4580 C   0  0  0  0  0  0  0  0  0  0  0  0
  -26.9350   -8.2370  -29.5400 C   0  0  0  0  0  0  0  0  0  0  0  0
  -27.1957   -6.9258  -29.7681 C   0  0  0  0  0  0  0  0  0  0  0  0
  1  2  2  0
  1  3  1  0
  3  4  1  0
  4  5  1  0
  5  6  1  0
M  END
>  <name>  (29) 
Car Nac Nd0 Car Car Car

>  <indices>  (29) 
[0, 1, 2]

>  <dummy>  (29) 
1

>  <tasks>  (29) 
probe_placing close_aromatic_ring close_aromatic_ring

>  <current_task>  (29) 
close_aromatic_ring

>  <prot_clashes>  (29) 
6

>  <NBS phar>  (29) 
0.2

>  <NBS_non-phar>  (29) 
0.7955093383789062

>  <NBS>  (29) 
0.9955093383789062

>  <source_stage>  (29) 
scored

>  <source_iter>  (29) 
2

>  <source_parent_mol>  (29) 
3

>  <source_scenario>  (29) 
0 3

>  <source_rank_in_scored_call>  (29) 
0

>  <source_current_task>  (29) 
close_aromatic_ring

>  <rotatable_bond_torsions>  (29) 
1,0,2,3;0,2,3,4

>  <scenario>  (29) 
0 3

>  <reason_to_skip>  (29) 
subgraph mismatch

$$$$

     RDKit          3D

  6  5  0  0  0  0  0  0  0  0999 V2000
  -28.3670   -7.7460  -31.9120 C   0  0  0  0  0  0  0  0  0  0  0  0
  -27.6610   -7.1190  -32.8950 N   0  0  0  0  0  0  0  0  0  0  0  0
  -28.0060   -9.0490  -31.5440 N   0  0  0  0  0  0  0  0  0  0  0  0
  -27.3520   -9.3500  -30.4580 C   0  0  0  0  0  0  0  0  0  0  0  0
  -26.9350   -8.2370  -29.5400 C   0  0  0  0  0  0  0  0  0  0  0  0
  -27.2310   -6.9204  -29.8346 C   0  0  0  0  0  0  0  0  0  0  0  0
  1  2  2  0
  1  3  1  0
  3  4  1  0
  4  5  1  0
  5  6  2  0
M  END
>  <name>  (30) 
Car Nac Nd0 Car Car Car

>  <indices>  (30) 
[0, 1, 2]

>  <dummy>  (30) 
1

>  <tasks>  (30) 
probe_placing close_aromatic_ring close_aromatic_ring

>  <current_task>  (30) 
close_aromatic_ring

>  <prot_clashes>  (30) 
6

>  <NBS phar>  (30) 
0.2

>  <NBS_non-phar>  (30) 
0.7955093383789062

>  <NBS>  (30) 
0.9955093383789062

>  <source_stage>  (30) 
scored

>  <source_iter>  (30) 
2

>  <source_parent_mol>  (30) 
3

>  <source_scenario>  (30) 
0 3

>  <source_rank_in_scored_call>  (30) 
0

>  <source_current_task>  (30) 
close_aromatic_ring

>  <rotatable_bond_torsions>  (30) 
1,0,2,3;0,2,3,4

>  <scenario>  (30) 
0 3

>  <reason_to_skip>  (30) 
subgraph mismatch

$$$$

     RDKit          3D

  6  5  0  0  0  0  0  0  0  0999 V2000
  -28.3670   -7.7460  -31.9120 C   0  0  0  0  0  0  0  0  0  0  0  0
  -27.6610   -7.1190  -32.8950 N   0  0  0  0  0  0  0  0  0  0  0  0
  -28.0060   -9.0490  -31.5440 N   0  0  0  0  0  0  0  0  0  0  0  0
  -27.3520   -9.3500  -30.4580 C   0  0  0  0  0  0  0  0  0  0  0  0
  -26.9350   -8.2370  -29.5400 C   0  0  0  0  0  0  0  0  0  0  0  0
  -27.2056   -6.9852  -29.9234 N   0  0  0  0  0  0  0  0  0  0  0  0
  1  2  2  0
  1  3  1  0
  3  4  1  0
  4  5  1  0
  5  6  2  0
M  END
>  <name>  (31) 
Car Nac Nd0 Car Car Nac

>  <indices>  (31) 
[0, 1, 2]

>  <dummy>  (31) 
1

>  <tasks>  (31) 
probe_placing close_aromatic_ring close_aromatic_ring

>  <current_task>  (31) 
close_aromatic_ring

>  <prot_clashes>  (31) 
6

>  <NBS phar>  (31) 
0.2

>  <NBS_non-phar>  (31) 
0.7955093383789062

>  <NBS>  (31) 
0.9955093383789062

>  <source_stage>  (31) 
scored

>  <source_iter>  (31) 
2

>  <source_parent_mol>  (31) 
3

>  <source_scenario>  (31) 
0 3

>  <source_rank_in_scored_call>  (31) 
0

>  <source_current_task>  (31) 
close_aromatic_ring

>  <rotatable_bond_torsions>  (31) 
1,0,2,3;0,2,3,4

>  <scenario>  (31) 
0 3

>  <reason_to_skip>  (31) 
subgraph mismatch

$$$$

     RDKit          3D

  6  5  0  0  0  0  0  0  0  0999 V2000
  -28.3670   -7.7460  -31.9120 C   0  0  0  0  0  0  0  0  0  0  0  0
  -27.6610   -7.1190  -32.8950 N   0  0  0  0  0  0  0  0  0  0  0  0
  -28.0060   -9.0490  -31.5440 N   0  0  0  0  0  0  0  0  0  0  0  0
  -27.3520   -9.3500  -30.4580 C   0  0  0  0  0  0  0  0  0  0  0  0
  -26.9350   -8.2370  -29.5400 C   0  0  0  0  0  0  0  0  0  0  0  0
  -27.2775   -7.0023  -29.8783 N   0  0  0  0  0  0  0  0  0  0  0  0
  1  2  2  0
  1  3  1  0
  3  4  1  0
  4  5  1  0
  5  6  1  0
M  END
>  <name>  (32) 
Car Nac Nd0 Car Car Nd0

>  <indices>  (32) 
[0, 1, 2]

>  <dummy>  (32) 
1

>  <tasks>  (32) 
probe_placing close_aromatic_ring close_aromatic_ring

>  <current_task>  (32) 
close_aromatic_ring

>  <prot_clashes>  (32) 
6

>  <NBS phar>  (32) 
0.2

>  <NBS_non-phar>  (32) 
0.7955093383789062

>  <NBS>  (32) 
0.9955093383789062

>  <source_stage>  (32) 
scored

>  <source_iter>  (32) 
2

>  <source_parent_mol>  (32) 
3

>  <source_scenario>  (32) 
0 3

>  <source_rank_in_scored_call>  (32) 
0

>  <source_current_task>  (32) 
close_aromatic_ring

>  <rotatable_bond_torsions>  (32) 
1,0,2,3;0,2,3,4

>  <scenario>  (32) 
0 3

>  <reason_to_skip>  (32) 
subgraph mismatch

$$$$

     RDKit          3D

  6  5  0  0  0  0  0  0  0  0999 V2000
  -28.3670   -7.7460  -31.9120 C   0  0  0  0  0  0  0  0  0  0  0  0
  -27.6610   -7.1190  -32.8950 N   0  0  0  0  0  0  0  0  0  0  0  0
  -28.0060   -9.0490  -31.5440 N   0  0  0  0  0  0  0  0  0  0  0  0
  -27.3520   -9.3500  -30.4580 C   0  0  0  0  0  0  0  0  0  0  0  0
  -26.9350   -8.2370  -29.5400 C   0  0  0  0  0  0  0  0  0  0  0  0
  -27.1207   -6.9663  -29.5550 N   0  0  0  0  0  0  0  0  0  0  0  0
  1  2  2  0
  1  3  1  0
  3  4  1  0
  4  5  1  0
  5  6  1  0
M  END
>  <name>  (33) 
Car Nac Nd0 Car Car Nd0

>  <indices>  (33) 
[0, 1, 2]

>  <dummy>  (33) 
1

>  <tasks>  (33) 
probe_placing close_aromatic_ring close_aromatic_ring

>  <current_task>  (33) 
close_aromatic_ring

>  <prot_clashes>  (33) 
6

>  <NBS phar>  (33) 
0.2

>  <NBS_non-phar>  (33) 
0.7955093383789062

>  <NBS>  (33) 
0.9955093383789062

>  <source_stage>  (33) 
scored

>  <source_iter>  (33) 
2

>  <source_parent_mol>  (33) 
3

>  <source_scenario>  (33) 
0 3

>  <source_rank_in_scored_call>  (33) 
0

>  <source_current_task>  (33) 
close_aromatic_ring

>  <rotatable_bond_torsions>  (33) 
1,0,2,3;0,2,3,4

>  <scenario>  (33) 
0 3

>  <reason_to_skip>  (33) 
subgraph mismatch

$$$$

     RDKit          3D

  6  5  0  0  0  0  0  0  0  0999 V2000
  -28.2470   -7.5270  -32.0350 C   0  0  0  0  0  0  0  0  0  0  0  0
  -27.7090   -7.0020  -33.1720 N   0  0  0  0  0  0  0  0  0  0  0  0
  -28.0510   -8.8870  -31.7570 N   0  0  0  0  0  0  0  0  0  0  0  0
  -27.2100   -9.3400  -30.8700 C   0  0  0  0  0  0  0  0  0  0  0  0
  -26.6190   -8.1000  -30.3530 C   0  0  0  0  0  0  0  0  0  0  0  0
  -25.5470   -8.3194  -29.1290 C   0  0  0  0  0  0  0  0  0  0  0  0
  1  2  2  0
  1  3  1  0
  3  4  1  0
  4  5  2  3
  5  6  1  0
M  END
>  <name>  (1) 
Car Nac Nd0 Car Car Car

>  <indices>  (1) 
[0, 1, 2]

>  <dummy>  (1) 
1

>  <tasks>  (1) 
probe_placing close_aromatic_ring close_aromatic_ring

>  <current_task>  (1) 
close_aromatic_ring

>  <prot_clashes>  (1) 
7

>  <NBS phar>  (1) 
0.22000000000000003

>  <NBS_non-phar>  (1) 
0.6449050426483154

>  <NBS>  (1) 
0.8649050426483154

>  <source_stage>  (1) 
scored

>  <source_iter>  (1) 
2

>  <source_parent_mol>  (1) 
3

>  <source_scenario>  (1) 
0 3

>  <source_rank_in_scored_call>  (1) 
1

>  <source_current_task>  (1) 
close_aromatic_ring

>  <rotatable_bond_torsions>  (1) 
1,0,2,3;0,2,3,4

>  <scenario>  (1) 
0 3

>  <reason_to_skip>  (1) 
incorrect arom ring closing

$$$$

     RDKit          3D

  6  5  0  0  0  0  0  0  0  0999 V2000
  -28.2470   -7.5270  -32.0350 C   0  0  0  0  0  0  0  0  0  0  0  0
  -27.7090   -7.0020  -33.1720 N   0  0  0  0  0  0  0  0  0  0  0  0
  -28.0510   -8.8870  -31.7570 N   0  0  0  0  0  0  0  0  0  0  0  0
  -27.2100   -9.3400  -30.8700 C   0  0  0  0  0  0  0  0  0  0  0  0
  -26.6190   -8.1000  -30.3530 C   0  0  0  0  0  0  0  0  0  0  0  0
  -26.5782   -6.7590  -30.3985 N   0  0  0  0  0  0  0  0  0  0  0  0
  1  2  2  0
  1  3  1  0
  3  4  1  0
  4  5  2  3
  5  6  1  0
M  END
>  <name>  (2) 
Car Nac Nd0 Car Car Nac

>  <indices>  (2) 
[0, 1, 2]

>  <dummy>  (2) 
1

>  <tasks>  (2) 
probe_placing close_aromatic_ring close_aromatic_ring

>  <current_task>  (2) 
close_aromatic_ring

>  <prot_clashes>  (2) 
7

>  <NBS phar>  (2) 
0.22000000000000003

>  <NBS_non-phar>  (2) 
0.6449050426483154

>  <NBS>  (2) 
0.8649050426483154

>  <source_stage>  (2) 
scored

>  <source_iter>  (2) 
2

>  <source_parent_mol>  (2) 
3

>  <source_scenario>  (2) 
0 3

>  <source_rank_in_scored_call>  (2) 
1

>  <source_current_task>  (2) 
close_aromatic_ring

>  <rotatable_bond_torsions>  (2) 
1,0,2,3;0,2,3,4

>  <scenario>  (2) 
0 3

>  <reason_to_skip>  (2) 
bad angles

$$$$

     RDKit          3D

  6  5  0  0  0  0  0  0  0  0999 V2000
  -28.2470   -7.5270  -32.0350 C   0  0  0  0  0  0  0  0  0  0  0  0
  -27.7090   -7.0020  -33.1720 N   0  0  0  0  0  0  0  0  0  0  0  0
  -28.0510   -8.8870  -31.7570 N   0  0  0  0  0  0  0  0  0  0  0  0
  -27.2100   -9.3400  -30.8700 C   0  0  0  0  0  0  0  0  0  0  0  0
  -26.6190   -8.1000  -30.3530 C   0  0  0  0  0  0  0  0  0  0  0  0
  -25.7014   -8.7304  -29.3230 N   0  0  0  0  0  0  0  0  0  0  0  0
  1  2  2  0
  1  3  1  0
  3  4  1  0
  4  5  2  3
  5  6  1  0
M  END
>  <name>  (3) 
Car Nac Nd0 Car Car Nac

>  <indices>  (3) 
[0, 1, 2]

>  <dummy>  (3) 
1

>  <tasks>  (3) 
probe_placing close_aromatic_ring close_aromatic_ring

>  <current_task>  (3) 
close_aromatic_ring

>  <prot_clashes>  (3) 
7

>  <NBS phar>  (3) 
0.22000000000000003

>  <NBS_non-phar>  (3) 
0.6449050426483154

>  <NBS>  (3) 
0.8649050426483154

>  <source_stage>  (3) 
scored

>  <source_iter>  (3) 
2

>  <source_parent_mol>  (3) 
3

>  <source_scenario>  (3) 
0 3

>  <source_rank_in_scored_call>  (3) 
1

>  <source_current_task>  (3) 
close_aromatic_ring

>  <rotatable_bond_torsions>  (3) 
1,0,2,3;0,2,3,4

>  <scenario>  (3) 
0 3

>  <reason_to_skip>  (3) 
bad angles

$$$$

     RDKit          3D

  6  5  0  0  0  0  0  0  0  0999 V2000
  -28.2470   -7.5270  -32.0350 C   0  0  0  0  0  0  0  0  0  0  0  0
  -27.7090   -7.0020  -33.1720 N   0  0  0  0  0  0  0  0  0  0  0  0
  -28.0510   -8.8870  -31.7570 N   0  0  0  0  0  0  0  0  0  0  0  0
  -27.2100   -9.3400  -30.8700 C   0  0  0  0  0  0  0  0  0  0  0  0
  -26.6190   -8.1000  -30.3530 C   0  0  0  0  0  0  0  0  0  0  0  0
  -26.6097   -6.6856  -30.3986 C   0  0  0  0  0  0  0  0  0  0  0  0
  1  2  2  0
  1  3  1  0
  3  4  1  0
  4  5  2  3
  5  6  1  0
M  END
>  <name>  (4) 
Car Nac Nd0 Car Car Car

>  <indices>  (4) 
[0, 1, 2]

>  <dummy>  (4) 
1

>  <tasks>  (4) 
probe_placing close_aromatic_ring close_aromatic_ring

>  <current_task>  (4) 
close_aromatic_ring

>  <prot_clashes>  (4) 
7

>  <NBS phar>  (4) 
0.22000000000000003

>  <NBS_non-phar>  (4) 
0.6449050426483154

>  <NBS>  (4) 
0.8649050426483154

>  <source_stage>  (4) 
scored

>  <source_iter>  (4) 
2

>  <source_parent_mol>  (4) 
3

>  <source_scenario>  (4) 
0 3

>  <source_rank_in_scored_call>  (4) 
1

>  <source_current_task>  (4) 
close_aromatic_ring

>  <rotatable_bond_torsions>  (4) 
1,0,2,3;0,2,3,4

>  <scenario>  (4) 
0 3

>  <reason_to_skip>  (4) 
bad angles

$$$$

     RDKit          3D

  6  5  0  0  0  0  0  0  0  0999 V2000
  -28.2470   -7.5270  -32.0350 C   0  0  0  0  0  0  0  0  0  0  0  0
  -27.7090   -7.0020  -33.1720 N   0  0  0  0  0  0  0  0  0  0  0  0
  -28.0510   -8.8870  -31.7570 N   0  0  0  0  0  0  0  0  0  0  0  0
  -27.2100   -9.3400  -30.8700 C   0  0  0  0  0  0  0  0  0  0  0  0
  -26.6190   -8.1000  -30.3530 C   0  0  0  0  0  0  0  0  0  0  0  0
  -25.5659   -8.4061  -29.2790 C   0  0  0  0  0  0  0  0  0  0  0  0
  1  2  2  0
  1  3  1  0
  3  4  1  0
  4  5  2  3
  5  6  1  0
M  END
>  <name>  (5) 
Car Nac Nd0 Car Car Car

>  <indices>  (5) 
[0, 1, 2]

>  <dummy>  (5) 
1

>  <tasks>  (5) 
probe_placing close_aromatic_ring close_aromatic_ring

>  <current_task>  (5) 
close_aromatic_ring

>  <prot_clashes>  (5) 
7

>  <NBS phar>  (5) 
0.22000000000000003

>  <NBS_non-phar>  (5) 
0.6449050426483154

>  <NBS>  (5) 
0.8649050426483154

>  <source_stage>  (5) 
scored

>  <source_iter>  (5) 
2

>  <source_parent_mol>  (5) 
3

>  <source_scenario>  (5) 
0 3

>  <source_rank_in_scored_call>  (5) 
1

>  <source_current_task>  (5) 
close_aromatic_ring

>  <rotatable_bond_torsions>  (5) 
1,0,2,3;0,2,3,4

>  <scenario>  (5) 
0 3

>  <reason_to_skip>  (5) 
incorrect arom ring closing

$$$$

     RDKit          3D

  6  5  0  0  0  0  0  0  0  0999 V2000
  -28.2470   -7.5270  -32.0350 C   0  0  0  0  0  0  0  0  0  0  0  0
  -27.7090   -7.0020  -33.1720 N   0  0  0  0  0  0  0  0  0  0  0  0
  -28.0510   -8.8870  -31.7570 N   0  0  0  0  0  0  0  0  0  0  0  0
  -27.2100   -9.3400  -30.8700 C   0  0  0  0  0  0  0  0  0  0  0  0
  -26.6190   -8.1000  -30.3530 C   0  0  0  0  0  0  0  0  0  0  0  0
  -26.7329   -6.7951  -30.5587 C   0  0  0  0  0  0  0  0  0  0  0  0
  1  2  2  0
  1  3  1  0
  3  4  1  0
  4  5  2  3
  5  6  1  0
M  END
>  <name>  (6) 
Car Nac Nd0 Car Car Car

>  <indices>  (6) 
[0, 1, 2]

>  <dummy>  (6) 
1

>  <tasks>  (6) 
probe_placing close_aromatic_ring close_aromatic_ring

>  <current_task>  (6) 
close_aromatic_ring

>  <prot_clashes>  (6) 
7

>  <NBS phar>  (6) 
0.22000000000000003

>  <NBS_non-phar>  (6) 
0.6449050426483154

>  <NBS>  (6) 
0.8649050426483154

>  <source_stage>  (6) 
scored

>  <source_iter>  (6) 
2

>  <source_parent_mol>  (6) 
3

>  <source_scenario>  (6) 
0 3

>  <source_rank_in_scored_call>  (6) 
1

>  <source_current_task>  (6) 
close_aromatic_ring

>  <rotatable_bond_torsions>  (6) 
1,0,2,3;0,2,3,4

>  <scenario>  (6) 
0 3

>  <reason_to_skip>  (6) 
bad angles

$$$$

     RDKit          3D

  6  6  0  0  0  0  0  0  0  0999 V2000
  -28.1900   -7.5046  -31.9769 C   0  0  0  0  0  0  0  0  0  0  0  0
  -27.7090   -7.0020  -33.1720 N   0  0  0  0  0  0  0  0  0  0  0  0
  -28.0992   -8.9304  -31.8016 N   0  0  0  0  0  0  0  0  0  0  0  0
  -27.1585   -9.2943  -30.8252 C   0  0  0  0  0  0  0  0  0  0  0  0
  -26.6440   -8.1803  -30.3678 C   0  0  0  0  0  0  0  0  0  0  0  0
  -27.1905   -6.9748  -30.9930 C   0  0  0  0  0  0  0  0  0  0  0  0
  1  2  2  0
  1  3  1  0
  3  4  1  0
  4  5  2  0
  5  6  1  0
  1  6  1  0
M  END
>  <name>  (7) 
Car Nac Nd0 Car Car Car

>  <indices>  (7) 
[0, 1, 2]

>  <dummy>  (7) 
1

>  <tasks>  (7) 
probe_placing close_aromatic_ring close_aromatic_ring

>  <current_task>  (7) 
close_aromatic_ring

>  <prot_clashes>  (7) 
7

>  <NBS phar>  (7) 
0.22000000000000003

>  <NBS_non-phar>  (7) 
0.6449050426483154

>  <NBS>  (7) 
0.8649050426483154

>  <source_stage>  (7) 
scored

>  <source_iter>  (7) 
2

>  <source_parent_mol>  (7) 
3

>  <source_scenario>  (7) 
0 3

>  <source_rank_in_scored_call>  (7) 
1

>  <source_current_task>  (7) 
close_aromatic_ring

>  <rotatable_bond_torsions>  (7) 
1,0,2,3;0,2,3,4

>  <scenario>  (7) 
0 3

>  <reason_to_skip>  (7) 
Cs2 not planar

$$$$

     RDKit          3D

  6  5  0  0  0  0  0  0  0  0999 V2000
  -28.2470   -7.5270  -32.0350 C   0  0  0  0  0  0  0  0  0  0  0  0
  -27.7090   -7.0020  -33.1720 N   0  0  0  0  0  0  0  0  0  0  0  0
  -28.0510   -8.8870  -31.7570 N   0  0  0  0  0  0  0  0  0  0  0  0
  -27.2100   -9.3400  -30.8700 C   0  0  0  0  0  0  0  0  0  0  0  0
  -26.6190   -8.1000  -30.3530 C   0  0  0  0  0  0  0  0  0  0  0  0
    0.0000    0.0000    0.0000 O   0  0  0  0  0  0  0  0  0  0  0  0
  1  2  2  0
  1  3  1  0
  3  4  1  0
  4  5  2  3
  5  6  1  0
M  END
>  <name>  (8) 
Car Nac Nd0 Car Car O_a

>  <indices>  (8) 
[0, 1, 2]

>  <dummy>  (8) 
1

>  <tasks>  (8) 
probe_placing close_aromatic_ring close_aromatic_ring

>  <current_task>  (8) 
close_aromatic_ring

>  <prot_clashes>  (8) 
7

>  <NBS phar>  (8) 
0.22000000000000003

>  <NBS_non-phar>  (8) 
0.6449050426483154

>  <NBS>  (8) 
0.8649050426483154

>  <source_stage>  (8) 
scored

>  <source_iter>  (8) 
2

>  <source_parent_mol>  (8) 
3

>  <source_scenario>  (8) 
0 3

>  <source_rank_in_scored_call>  (8) 
1

>  <source_current_task>  (8) 
close_aromatic_ring

>  <rotatable_bond_torsions>  (8) 
1,0,2,3;0,2,3,4

>  <scenario>  (8) 
0 3

>  <reason_to_skip>  (8) 
some_atom_counter_exceeded

$$$$

     RDKit          3D

  6  5  0  0  0  0  0  0  0  0999 V2000
  -28.2470   -7.5270  -32.0350 C   0  0  0  0  0  0  0  0  0  0  0  0
  -27.7090   -7.0020  -33.1720 N   0  0  0  0  0  0  0  0  0  0  0  0
  -28.0510   -8.8870  -31.7570 N   0  0  0  0  0  0  0  0  0  0  0  0
  -27.2100   -9.3400  -30.8700 C   0  0  0  0  0  0  0  0  0  0  0  0
  -26.6190   -8.1000  -30.3530 C   0  0  0  0  0  0  0  0  0  0  0  0
  -26.6875   -6.8073  -30.5172 N   0  0  0  0  0  0  0  0  0  0  0  0
  1  2  2  0
  1  3  1  0
  3  4  1  0
  4  5  2  3
  5  6  1  0
M  END
>  <name>  (9) 
Car Nac Nd0 Car Car Nac

>  <indices>  (9) 
[0, 1, 2]

>  <dummy>  (9) 
1

>  <tasks>  (9) 
probe_placing close_aromatic_ring close_aromatic_ring

>  <current_task>  (9) 
close_aromatic_ring

>  <prot_clashes>  (9) 
7

>  <NBS phar>  (9) 
0.22000000000000003

>  <NBS_non-phar>  (9) 
0.6449050426483154

>  <NBS>  (9) 
0.8649050426483154

>  <source_stage>  (9) 
scored

>  <source_iter>  (9) 
2

>  <source_parent_mol>  (9) 
3

>  <source_scenario>  (9) 
0 3

>  <source_rank_in_scored_call>  (9) 
1

>  <source_current_task>  (9) 
close_aromatic_ring

>  <rotatable_bond_torsions>  (9) 
1,0,2,3;0,2,3,4

>  <scenario>  (9) 
0 3

>  <reason_to_skip>  (9) 
bad angles

$$$$

     RDKit          3D

  6  5  0  0  0  0  0  0  0  0999 V2000
  -28.2470   -7.5270  -32.0350 C   0  0  0  0  0  0  0  0  0  0  0  0
  -27.7090   -7.0020  -33.1720 N   0  0  0  0  0  0  0  0  0  0  0  0
  -28.0510   -8.8870  -31.7570 N   0  0  0  0  0  0  0  0  0  0  0  0
  -27.2100   -9.3400  -30.8700 C   0  0  0  0  0  0  0  0  0  0  0  0
  -26.6190   -8.1000  -30.3530 C   0  0  0  0  0  0  0  0  0  0  0  0
  -25.5909   -7.9934  -29.3145 N   0  0  0  0  0  0  0  0  0  0  0  0
  1  2  2  0
  1  3  1  0
  3  4  1  0
  4  5  2  3
  5  6  1  0
M  END
>  <name>  (10) 
Car Nac Nd0 Car Car Nd0

>  <indices>  (10) 
[0, 1, 2]

>  <dummy>  (10) 
1

>  <tasks>  (10) 
probe_placing close_aromatic_ring close_aromatic_ring

>  <current_task>  (10) 
close_aromatic_ring

>  <prot_clashes>  (10) 
7

>  <NBS phar>  (10) 
0.22000000000000003

>  <NBS_non-phar>  (10) 
0.6449050426483154

>  <NBS>  (10) 
0.8649050426483154

>  <source_stage>  (10) 
scored

>  <source_iter>  (10) 
2

>  <source_parent_mol>  (10) 
3

>  <source_scenario>  (10) 
0 3

>  <source_rank_in_scored_call>  (10) 
1

>  <source_current_task>  (10) 
close_aromatic_ring

>  <rotatable_bond_torsions>  (10) 
1,0,2,3;0,2,3,4

>  <scenario>  (10) 
0 3

>  <reason_to_skip>  (10) 
incorrect arom ring closing

$$$$

     RDKit          3D

  6  5  0  0  0  0  0  0  0  0999 V2000
  -28.2470   -7.5270  -32.0350 C   0  0  0  0  0  0  0  0  0  0  0  0
  -27.7090   -7.0020  -33.1720 N   0  0  0  0  0  0  0  0  0  0  0  0
  -28.0510   -8.8870  -31.7570 N   0  0  0  0  0  0  0  0  0  0  0  0
  -27.2100   -9.3400  -30.8700 C   0  0  0  0  0  0  0  0  0  0  0  0
  -26.6190   -8.1000  -30.3530 C   0  0  0  0  0  0  0  0  0  0  0  0
  -25.5969   -8.3477  -29.2783 N   0  0  0  0  0  0  0  0  0  0  0  0
  1  2  2  0
  1  3  1  0
  3  4  1  0
  4  5  2  3
  5  6  1  0
M  END
>  <name>  (11) 
Car Nac Nd0 Car Car Nac

>  <indices>  (11) 
[0, 1, 2]

>  <dummy>  (11) 
1

>  <tasks>  (11) 
probe_placing close_aromatic_ring close_aromatic_ring

>  <current_task>  (11) 
close_aromatic_ring

>  <prot_clashes>  (11) 
7

>  <NBS phar>  (11) 
0.22000000000000003

>  <NBS_non-phar>  (11) 
0.6449050426483154

>  <NBS>  (11) 
0.8649050426483154

>  <source_stage>  (11) 
scored

>  <source_iter>  (11) 
2

>  <source_parent_mol>  (11) 
3

>  <source_scenario>  (11) 
0 3

>  <source_rank_in_scored_call>  (11) 
1

>  <source_current_task>  (11) 
close_aromatic_ring

>  <rotatable_bond_torsions>  (11) 
1,0,2,3;0,2,3,4

>  <scenario>  (11) 
0 3

>  <reason_to_skip>  (11) 
incorrect arom ring closing

$$$$

     RDKit          3D

  6  5  0  0  0  0  0  0  0  0999 V2000
  -28.2470   -7.5270  -32.0350 C   0  0  0  0  0  0  0  0  0  0  0  0
  -27.7090   -7.0020  -33.1720 N   0  0  0  0  0  0  0  0  0  0  0  0
  -28.0510   -8.8870  -31.7570 N   0  0  0  0  0  0  0  0  0  0  0  0
  -27.2100   -9.3400  -30.8700 C   0  0  0  0  0  0  0  0  0  0  0  0
  -26.6190   -8.1000  -30.3530 C   0  0  0  0  0  0  0  0  0  0  0  0
    0.0000    0.0000    0.0000 O   0  0  0  0  0  0  0  0  0  0  0  0
  1  2  2  0
  1  3  1  0
  3  4  1  0
  4  5  2  3
  5  6  1  0
M  END
>  <name>  (12) 
Car Nac Nd0 Car Car O_a

>  <indices>  (12) 
[0, 1, 2]

>  <dummy>  (12) 
1

>  <tasks>  (12) 
probe_placing close_aromatic_ring close_aromatic_ring

>  <current_task>  (12) 
close_aromatic_ring

>  <prot_clashes>  (12) 
7

>  <NBS phar>  (12) 
0.22000000000000003

>  <NBS_non-phar>  (12) 
0.6449050426483154

>  <NBS>  (12) 
0.8649050426483154

>  <source_stage>  (12) 
scored

>  <source_iter>  (12) 
2

>  <source_parent_mol>  (12) 
3

>  <source_scenario>  (12) 
0 3

>  <source_rank_in_scored_call>  (12) 
1

>  <source_current_task>  (12) 
close_aromatic_ring

>  <rotatable_bond_torsions>  (12) 
1,0,2,3;0,2,3,4

>  <scenario>  (12) 
0 3

>  <reason_to_skip>  (12) 
some_atom_counter_exceeded

$$$$

     RDKit          3D

  6  5  0  0  0  0  0  0  0  0999 V2000
  -28.2470   -7.5270  -32.0350 C   0  0  0  0  0  0  0  0  0  0  0  0
  -27.7090   -7.0020  -33.1720 N   0  0  0  0  0  0  0  0  0  0  0  0
  -28.0510   -8.8870  -31.7570 N   0  0  0  0  0  0  0  0  0  0  0  0
  -27.2100   -9.3400  -30.8700 C   0  0  0  0  0  0  0  0  0  0  0  0
  -26.6190   -8.1000  -30.3530 C   0  0  0  0  0  0  0  0  0  0  0  0
  -27.1190   -7.7689  -29.0313 C   0  0  0  0  0  0  0  0  0  0  0  0
  1  2  2  0
  1  3  1  0
  3  4  1  0
  4  5  2  3
  5  6  1  0
M  END
>  <name>  (13) 
Car Nac Nd0 Car Car Car

>  <indices>  (13) 
[0, 1, 2]

>  <dummy>  (13) 
1

>  <tasks>  (13) 
probe_placing close_aromatic_ring close_aromatic_ring

>  <current_task>  (13) 
close_aromatic_ring

>  <prot_clashes>  (13) 
7

>  <NBS phar>  (13) 
0.22000000000000003

>  <NBS_non-phar>  (13) 
0.6449050426483154

>  <NBS>  (13) 
0.8649050426483154

>  <source_stage>  (13) 
scored

>  <source_iter>  (13) 
2

>  <source_parent_mol>  (13) 
3

>  <source_scenario>  (13) 
0 3

>  <source_rank_in_scored_call>  (13) 
1

>  <source_current_task>  (13) 
close_aromatic_ring

>  <rotatable_bond_torsions>  (13) 
1,0,2,3;0,2,3,4

>  <scenario>  (13) 
0 3

>  <reason_to_skip>  (13) 
incorrect arom ring closing

$$$$

     RDKit          3D

  6  5  0  0  0  0  0  0  0  0999 V2000
  -28.2470   -7.5270  -32.0350 C   0  0  0  0  0  0  0  0  0  0  0  0
  -27.7090   -7.0020  -33.1720 N   0  0  0  0  0  0  0  0  0  0  0  0
  -28.0510   -8.8870  -31.7570 N   0  0  0  0  0  0  0  0  0  0  0  0
  -27.2100   -9.3400  -30.8700 C   0  0  0  0  0  0  0  0  0  0  0  0
  -26.6190   -8.1000  -30.3530 C   0  0  0  0  0  0  0  0  0  0  0  0
  -26.8468   -6.8724  -30.6373 N   0  0  0  0  0  0  0  0  0  0  0  0
  1  2  2  0
  1  3  1  0
  3  4  1  0
  4  5  2  3
  5  6  1  0
M  END
>  <name>  (14) 
Car Nac Nd0 Car Car Nd0

>  <indices>  (14) 
[0, 1, 2]

>  <dummy>  (14) 
1

>  <tasks>  (14) 
probe_placing close_aromatic_ring close_aromatic_ring

>  <current_task>  (14) 
close_aromatic_ring

>  <prot_clashes>  (14) 
7

>  <NBS phar>  (14) 
0.22000000000000003

>  <NBS_non-phar>  (14) 
0.6449050426483154

>  <NBS>  (14) 
0.8649050426483154

>  <source_stage>  (14) 
scored

>  <source_iter>  (14) 
2

>  <source_parent_mol>  (14) 
3

>  <source_scenario>  (14) 
0 3

>  <source_rank_in_scored_call>  (14) 
1

>  <source_current_task>  (14) 
close_aromatic_ring

>  <rotatable_bond_torsions>  (14) 
1,0,2,3;0,2,3,4

>  <scenario>  (14) 
0 3

>  <reason_to_skip>  (14) 
incorrect arom ring closing

$$$$

     RDKit          3D

  6  5  0  0  0  0  0  0  0  0999 V2000
  -28.2470   -7.5270  -32.0350 C   0  0  0  0  0  0  0  0  0  0  0  0
  -27.7090   -7.0020  -33.1720 N   0  0  0  0  0  0  0  0  0  0  0  0
  -28.0510   -8.8870  -31.7570 N   0  0  0  0  0  0  0  0  0  0  0  0
  -27.2100   -9.3400  -30.8700 C   0  0  0  0  0  0  0  0  0  0  0  0
  -26.6190   -8.1000  -30.3530 C   0  0  0  0  0  0  0  0  0  0  0  0
  -25.6493   -8.3762  -29.3225 N   0  0  0  0  0  0  0  0  0  0  0  0
  1  2  2  0
  1  3  1  0
  3  4  1  0
  4  5  2  3
  5  6  1  0
M  END
>  <name>  (15) 
Car Nac Nd0 Car Car Nd0

>  <indices>  (15) 
[0, 1, 2]

>  <dummy>  (15) 
1

>  <tasks>  (15) 
probe_placing close_aromatic_ring close_aromatic_ring

>  <current_task>  (15) 
close_aromatic_ring

>  <prot_clashes>  (15) 
7

>  <NBS phar>  (15) 
0.22000000000000003

>  <NBS_non-phar>  (15) 
0.6449050426483154

>  <NBS>  (15) 
0.8649050426483154

>  <source_stage>  (15) 
scored

>  <source_iter>  (15) 
2

>  <source_parent_mol>  (15) 
3

>  <source_scenario>  (15) 
0 3

>  <source_rank_in_scored_call>  (15) 
1

>  <source_current_task>  (15) 
close_aromatic_ring

>  <rotatable_bond_torsions>  (15) 
1,0,2,3;0,2,3,4

>  <scenario>  (15) 
0 3

>  <reason_to_skip>  (15) 
incorrect arom ring closing

$$$$

     RDKit          3D

  6  5  0  0  0  0  0  0  0  0999 V2000
  -28.2470   -7.5270  -32.0350 C   0  0  0  0  0  0  0  0  0  0  0  0
  -27.7090   -7.0020  -33.1720 N   0  0  0  0  0  0  0  0  0  0  0  0
  -28.0510   -8.8870  -31.7570 N   0  0  0  0  0  0  0  0  0  0  0  0
  -27.2100   -9.3400  -30.8700 C   0  0  0  0  0  0  0  0  0  0  0  0
  -26.6190   -8.1000  -30.3530 C   0  0  0  0  0  0  0  0  0  0  0  0
    0.0000    0.0000    0.0000 S   0  0  0  0  0  0  0  0  0  0  0  0
  1  2  2  0
  1  3  1  0
  3  4  1  0
  4  5  2  3
  5  6  1  0
M  END
>  <name>  (16) 
Car Nac Nd0 Car Car Sul

>  <indices>  (16) 
[0, 1, 2]

>  <dummy>  (16) 
1

>  <tasks>  (16) 
probe_placing close_aromatic_ring close_aromatic_ring

>  <current_task>  (16) 
close_aromatic_ring

>  <prot_clashes>  (16) 
7

>  <NBS phar>  (16) 
0.22000000000000003

>  <NBS_non-phar>  (16) 
0.6449050426483154

>  <NBS>  (16) 
0.8649050426483154

>  <source_stage>  (16) 
scored

>  <source_iter>  (16) 
2

>  <source_parent_mol>  (16) 
3

>  <source_scenario>  (16) 
0 3

>  <source_rank_in_scored_call>  (16) 
1

>  <source_current_task>  (16) 
close_aromatic_ring

>  <rotatable_bond_torsions>  (16) 
1,0,2,3;0,2,3,4

>  <scenario>  (16) 
0 3

>  <reason_to_skip>  (16) 
some_atom_counter_exceeded

$$$$

     RDKit          3D

  6  5  0  0  0  0  0  0  0  0999 V2000
  -28.2470   -7.5270  -32.0350 C   0  0  0  0  0  0  0  0  0  0  0  0
  -27.7090   -7.0020  -33.1720 N   0  0  0  0  0  0  0  0  0  0  0  0
  -28.0510   -8.8870  -31.7570 N   0  0  0  0  0  0  0  0  0  0  0  0
  -27.2100   -9.3400  -30.8700 C   0  0  0  0  0  0  0  0  0  0  0  0
  -26.6190   -8.1000  -30.3530 C   0  0  0  0  0  0  0  0  0  0  0  0
  -26.8056   -7.6875  -28.9189 C   0  0  0  0  0  0  0  0  0  0  0  0
  1  2  2  0
  1  3  1  0
  3  4  1  0
  4  5  2  3
  5  6  1  0
M  END
>  <name>  (17) 
Car Nac Nd0 Car Car Car

>  <indices>  (17) 
[0, 1, 2]

>  <dummy>  (17) 
1

>  <tasks>  (17) 
probe_placing close_aromatic_ring close_aromatic_ring

>  <current_task>  (17) 
close_aromatic_ring

>  <prot_clashes>  (17) 
7

>  <NBS phar>  (17) 
0.22000000000000003

>  <NBS_non-phar>  (17) 
0.6449050426483154

>  <NBS>  (17) 
0.8649050426483154

>  <source_stage>  (17) 
scored

>  <source_iter>  (17) 
2

>  <source_parent_mol>  (17) 
3

>  <source_scenario>  (17) 
0 3

>  <source_rank_in_scored_call>  (17) 
1

>  <source_current_task>  (17) 
close_aromatic_ring

>  <rotatable_bond_torsions>  (17) 
1,0,2,3;0,2,3,4

>  <scenario>  (17) 
0 3

>  <reason_to_skip>  (17) 
incorrect arom ring closing

$$$$

     RDKit          3D

  6  5  0  0  0  0  0  0  0  0999 V2000
  -28.2470   -7.5270  -32.0350 C   0  0  0  0  0  0  0  0  0  0  0  0
  -27.7090   -7.0020  -33.1720 N   0  0  0  0  0  0  0  0  0  0  0  0
  -28.0510   -8.8870  -31.7570 N   0  0  0  0  0  0  0  0  0  0  0  0
  -27.2100   -9.3400  -30.8700 C   0  0  0  0  0  0  0  0  0  0  0  0
  -26.6190   -8.1000  -30.3530 C   0  0  0  0  0  0  0  0  0  0  0  0
  -26.6090   -6.8231  -30.3672 N   0  0  0  0  0  0  0  0  0  0  0  0
  1  2  2  0
  1  3  1  0
  3  4  1  0
  4  5  2  3
  5  6  1  0
M  END
>  <name>  (18) 
Car Nac Nd0 Car Car Nd0

>  <indices>  (18) 
[0, 1, 2]

>  <dummy>  (18) 
1

>  <tasks>  (18) 
probe_placing close_aromatic_ring close_aromatic_ring

>  <current_task>  (18) 
close_aromatic_ring

>  <prot_clashes>  (18) 
7

>  <NBS phar>  (18) 
0.22000000000000003

>  <NBS_non-phar>  (18) 
0.6449050426483154

>  <NBS>  (18) 
0.8649050426483154

>  <source_stage>  (18) 
scored

>  <source_iter>  (18) 
2

>  <source_parent_mol>  (18) 
3

>  <source_scenario>  (18) 
0 3

>  <source_rank_in_scored_call>  (18) 
1

>  <source_current_task>  (18) 
close_aromatic_ring

>  <rotatable_bond_torsions>  (18) 
1,0,2,3;0,2,3,4

>  <scenario>  (18) 
0 3

>  <reason_to_skip>  (18) 
bad angles

$$$$

     RDKit          3D

  6  5  0  0  0  0  0  0  0  0999 V2000
  -28.2470   -7.5270  -32.0350 C   0  0  0  0  0  0  0  0  0  0  0  0
  -27.7090   -7.0020  -33.1720 N   0  0  0  0  0  0  0  0  0  0  0  0
  -28.0510   -8.8870  -31.7570 N   0  0  0  0  0  0  0  0  0  0  0  0
  -27.2100   -9.3400  -30.8700 C   0  0  0  0  0  0  0  0  0  0  0  0
  -26.6190   -8.1000  -30.3530 C   0  0  0  0  0  0  0  0  0  0  0  0
    0.0000    0.0000    0.0000 O   0  0  0  0  0  0  0  0  0  0  0  0
  1  2  2  0
  1  3  1  0
  3  4  1  0
  4  5  2  3
  5  6  1  0
M  END
>  <name>  (19) 
Car Nac Nd0 Car Car O_a

>  <indices>  (19) 
[0, 1, 2]

>  <dummy>  (19) 
1

>  <tasks>  (19) 
probe_placing close_aromatic_ring close_aromatic_ring

>  <current_task>  (19) 
close_aromatic_ring

>  <prot_clashes>  (19) 
7

>  <NBS phar>  (19) 
0.22000000000000003

>  <NBS_non-phar>  (19) 
0.6449050426483154

>  <NBS>  (19) 
0.8649050426483154

>  <source_stage>  (19) 
scored

>  <source_iter>  (19) 
2

>  <source_parent_mol>  (19) 
3

>  <source_scenario>  (19) 
0 3

>  <source_rank_in_scored_call>  (19) 
1

>  <source_current_task>  (19) 
close_aromatic_ring

>  <rotatable_bond_torsions>  (19) 
1,0,2,3;0,2,3,4

>  <scenario>  (19) 
0 3

>  <reason_to_skip>  (19) 
some_atom_counter_exceeded

$$$$

     RDKit          3D

  6  5  0  0  0  0  0  0  0  0999 V2000
  -28.2470   -7.5270  -32.0350 C   0  0  0  0  0  0  0  0  0  0  0  0
  -27.7090   -7.0020  -33.1720 N   0  0  0  0  0  0  0  0  0  0  0  0
  -28.0510   -8.8870  -31.7570 N   0  0  0  0  0  0  0  0  0  0  0  0
  -27.2100   -9.3400  -30.8700 C   0  0  0  0  0  0  0  0  0  0  0  0
  -26.6190   -8.1000  -30.3530 C   0  0  0  0  0  0  0  0  0  0  0  0
    0.0000    0.0000    0.0000 S   0  0  0  0  0  0  0  0  0  0  0  0
  1  2  2  0
  1  3  1  0
  3  4  1  0
  4  5  2  3
  5  6  1  0
M  END
>  <name>  (20) 
Car Nac Nd0 Car Car Sul

>  <indices>  (20) 
[0, 1, 2]

>  <dummy>  (20) 
1

>  <tasks>  (20) 
probe_placing close_aromatic_ring close_aromatic_ring

>  <current_task>  (20) 
close_aromatic_ring

>  <prot_clashes>  (20) 
7

>  <NBS phar>  (20) 
0.22000000000000003

>  <NBS_non-phar>  (20) 
0.6449050426483154

>  <NBS>  (20) 
0.8649050426483154

>  <source_stage>  (20) 
scored

>  <source_iter>  (20) 
2

>  <source_parent_mol>  (20) 
3

>  <source_scenario>  (20) 
0 3

>  <source_rank_in_scored_call>  (20) 
1

>  <source_current_task>  (20) 
close_aromatic_ring

>  <rotatable_bond_torsions>  (20) 
1,0,2,3;0,2,3,4

>  <scenario>  (20) 
0 3

>  <reason_to_skip>  (20) 
some_atom_counter_exceeded

$$$$

     RDKit          3D

  6  5  0  0  0  0  0  0  0  0999 V2000
  -28.2470   -7.5270  -32.0350 C   0  0  0  0  0  0  0  0  0  0  0  0
  -27.7090   -7.0020  -33.1720 N   0  0  0  0  0  0  0  0  0  0  0  0
  -28.0510   -8.8870  -31.7570 N   0  0  0  0  0  0  0  0  0  0  0  0
  -27.2100   -9.3400  -30.8700 C   0  0  0  0  0  0  0  0  0  0  0  0
  -26.6190   -8.1000  -30.3530 C   0  0  0  0  0  0  0  0  0  0  0  0
    0.0000    0.0000    0.0000 S   0  0  0  0  0  0  0  0  0  0  0  0
  1  2  2  0
  1  3  1  0
  3  4  1  0
  4  5  2  3
  5  6  1  0
M  END
>  <name>  (21) 
Car Nac Nd0 Car Car Sul

>  <indices>  (21) 
[0, 1, 2]

>  <dummy>  (21) 
1

>  <tasks>  (21) 
probe_placing close_aromatic_ring close_aromatic_ring

>  <current_task>  (21) 
close_aromatic_ring

>  <prot_clashes>  (21) 
7

>  <NBS phar>  (21) 
0.22000000000000003

>  <NBS_non-phar>  (21) 
0.6449050426483154

>  <NBS>  (21) 
0.8649050426483154

>  <source_stage>  (21) 
scored

>  <source_iter>  (21) 
2

>  <source_parent_mol>  (21) 
3

>  <source_scenario>  (21) 
0 3

>  <source_rank_in_scored_call>  (21) 
1

>  <source_current_task>  (21) 
close_aromatic_ring

>  <rotatable_bond_torsions>  (21) 
1,0,2,3;0,2,3,4

>  <scenario>  (21) 
0 3

>  <reason_to_skip>  (21) 
some_atom_counter_exceeded

$$$$

     RDKit          3D

  6  5  0  0  0  0  0  0  0  0999 V2000
  -28.2470   -7.5270  -32.0350 C   0  0  0  0  0  0  0  0  0  0  0  0
  -27.7090   -7.0020  -33.1720 N   0  0  0  0  0  0  0  0  0  0  0  0
  -28.0510   -8.8870  -31.7570 N   0  0  0  0  0  0  0  0  0  0  0  0
  -27.2100   -9.3400  -30.8700 C   0  0  0  0  0  0  0  0  0  0  0  0
  -26.6190   -8.1000  -30.3530 C   0  0  0  0  0  0  0  0  0  0  0  0
    0.0000    0.0000    0.0000 S   0  0  0  0  0  0  0  0  0  0  0  0
  1  2  2  0
  1  3  1  0
  3  4  1  0
  4  5  2  3
  5  6  1  0
M  END
>  <name>  (22) 
Car Nac Nd0 Car Car Sul

>  <indices>  (22) 
[0, 1, 2]

>  <dummy>  (22) 
1

>  <tasks>  (22) 
probe_placing close_aromatic_ring close_aromatic_ring

>  <current_task>  (22) 
close_aromatic_ring

>  <prot_clashes>  (22) 
7

>  <NBS phar>  (22) 
0.22000000000000003

>  <NBS_non-phar>  (22) 
0.6449050426483154

>  <NBS>  (22) 
0.8649050426483154

>  <source_stage>  (22) 
scored

>  <source_iter>  (22) 
2

>  <source_parent_mol>  (22) 
3

>  <source_scenario>  (22) 
0 3

>  <source_rank_in_scored_call>  (22) 
1

>  <source_current_task>  (22) 
close_aromatic_ring

>  <rotatable_bond_torsions>  (22) 
1,0,2,3;0,2,3,4

>  <scenario>  (22) 
0 3

>  <reason_to_skip>  (22) 
some_atom_counter_exceeded

$$$$

     RDKit          3D

  6  5  0  0  0  0  0  0  0  0999 V2000
  -28.2470   -7.5270  -32.0350 C   0  0  0  0  0  0  0  0  0  0  0  0
  -27.7090   -7.0020  -33.1720 N   0  0  0  0  0  0  0  0  0  0  0  0
  -28.0510   -8.8870  -31.7570 N   0  0  0  0  0  0  0  0  0  0  0  0
  -27.2100   -9.3400  -30.8700 C   0  0  0  0  0  0  0  0  0  0  0  0
  -26.6190   -8.1000  -30.3530 C   0  0  0  0  0  0  0  0  0  0  0  0
    0.0000    0.0000    0.0000 O   0  0  0  0  0  0  0  0  0  0  0  0
  1  2  2  0
  1  3  1  0
  3  4  1  0
  4  5  2  3
  5  6  1  0
M  END
>  <name>  (23) 
Car Nac Nd0 Car Car O_a

>  <indices>  (23) 
[0, 1, 2]

>  <dummy>  (23) 
1

>  <tasks>  (23) 
probe_placing close_aromatic_ring close_aromatic_ring

>  <current_task>  (23) 
close_aromatic_ring

>  <prot_clashes>  (23) 
7

>  <NBS phar>  (23) 
0.22000000000000003

>  <NBS_non-phar>  (23) 
0.6449050426483154

>  <NBS>  (23) 
0.8649050426483154

>  <source_stage>  (23) 
scored

>  <source_iter>  (23) 
2

>  <source_parent_mol>  (23) 
3

>  <source_scenario>  (23) 
0 3

>  <source_rank_in_scored_call>  (23) 
1

>  <source_current_task>  (23) 
close_aromatic_ring

>  <rotatable_bond_torsions>  (23) 
1,0,2,3;0,2,3,4

>  <scenario>  (23) 
0 3

>  <reason_to_skip>  (23) 
some_atom_counter_exceeded

$$$$

     RDKit          3D

  6  5  0  0  0  0  0  0  0  0999 V2000
  -28.2470   -7.5270  -32.0350 C   0  0  0  0  0  0  0  0  0  0  0  0
  -27.7090   -7.0020  -33.1720 N   0  0  0  0  0  0  0  0  0  0  0  0
  -28.0510   -8.8870  -31.7570 N   0  0  0  0  0  0  0  0  0  0  0  0
  -27.2100   -9.3400  -30.8700 C   0  0  0  0  0  0  0  0  0  0  0  0
  -26.6190   -8.1000  -30.3530 C   0  0  0  0  0  0  0  0  0  0  0  0
    0.0000    0.0000    0.0000 S   0  0  0  0  0  0  0  0  0  0  0  0
  1  2  2  0
  1  3  1  0
  3  4  1  0
  4  5  2  3
  5  6  1  0
M  END
>  <name>  (24) 
Car Nac Nd0 Car Car Sul

>  <indices>  (24) 
[0, 1, 2]

>  <dummy>  (24) 
1

>  <tasks>  (24) 
probe_placing close_aromatic_ring close_aromatic_ring

>  <current_task>  (24) 
close_aromatic_ring

>  <prot_clashes>  (24) 
7

>  <NBS phar>  (24) 
0.22000000000000003

>  <NBS_non-phar>  (24) 
0.6449050426483154

>  <NBS>  (24) 
0.8649050426483154

>  <source_stage>  (24) 
scored

>  <source_iter>  (24) 
2

>  <source_parent_mol>  (24) 
3

>  <source_scenario>  (24) 
0 3

>  <source_rank_in_scored_call>  (24) 
1

>  <source_current_task>  (24) 
close_aromatic_ring

>  <rotatable_bond_torsions>  (24) 
1,0,2,3;0,2,3,4

>  <scenario>  (24) 
0 3

>  <reason_to_skip>  (24) 
some_atom_counter_exceeded

$$$$

     RDKit          3D

  6  5  0  0  0  0  0  0  0  0999 V2000
  -28.2470   -7.5270  -32.0350 C   0  0  0  0  0  0  0  0  0  0  0  0
  -27.7090   -7.0020  -33.1720 N   0  0  0  0  0  0  0  0  0  0  0  0
  -28.0510   -8.8870  -31.7570 N   0  0  0  0  0  0  0  0  0  0  0  0
  -27.2100   -9.3400  -30.8700 C   0  0  0  0  0  0  0  0  0  0  0  0
  -26.6190   -8.1000  -30.3530 C   0  0  0  0  0  0  0  0  0  0  0  0
    0.0000    0.0000    0.0000 S   0  0  0  0  0  0  0  0  0  0  0  0
  1  2  2  0
  1  3  1  0
  3  4  1  0
  4  5  2  3
  5  6  1  0
M  END
>  <name>  (25) 
Car Nac Nd0 Car Car Sul

>  <indices>  (25) 
[0, 1, 2]

>  <dummy>  (25) 
1

>  <tasks>  (25) 
probe_placing close_aromatic_ring close_aromatic_ring

>  <current_task>  (25) 
close_aromatic_ring

>  <prot_clashes>  (25) 
7

>  <NBS phar>  (25) 
0.22000000000000003

>  <NBS_non-phar>  (25) 
0.6449050426483154

>  <NBS>  (25) 
0.8649050426483154

>  <source_stage>  (25) 
scored

>  <source_iter>  (25) 
2

>  <source_parent_mol>  (25) 
3

>  <source_scenario>  (25) 
0 3

>  <source_rank_in_scored_call>  (25) 
1

>  <source_current_task>  (25) 
close_aromatic_ring

>  <rotatable_bond_torsions>  (25) 
1,0,2,3;0,2,3,4

>  <scenario>  (25) 
0 3

>  <reason_to_skip>  (25) 
some_atom_counter_exceeded

$$$$

     RDKit          3D

  6  5  0  0  0  0  0  0  0  0999 V2000
  -28.2470   -7.5270  -32.0350 C   0  0  0  0  0  0  0  0  0  0  0  0
  -27.7090   -7.0020  -33.1720 N   0  0  0  0  0  0  0  0  0  0  0  0
  -28.0510   -8.8870  -31.7570 N   0  0  0  0  0  0  0  0  0  0  0  0
  -27.2100   -9.3400  -30.8700 C   0  0  0  0  0  0  0  0  0  0  0  0
  -26.6190   -8.1000  -30.3530 C   0  0  0  0  0  0  0  0  0  0  0  0
  -25.1462   -7.9978  -30.3642 C   0  0  0  0  0  0  0  0  0  0  0  0
  1  2  2  0
  1  3  1  0
  3  4  1  0
  4  5  2  3
  5  6  1  0
M  END
>  <name>  (26) 
Car Nac Nd0 Car Car Car

>  <indices>  (26) 
[0, 1, 2]

>  <dummy>  (26) 
1

>  <tasks>  (26) 
probe_placing close_aromatic_ring close_aromatic_ring

>  <current_task>  (26) 
close_aromatic_ring

>  <prot_clashes>  (26) 
7

>  <NBS phar>  (26) 
0.22000000000000003

>  <NBS_non-phar>  (26) 
0.6449050426483154

>  <NBS>  (26) 
0.8649050426483154

>  <source_stage>  (26) 
scored

>  <source_iter>  (26) 
2

>  <source_parent_mol>  (26) 
3

>  <source_scenario>  (26) 
0 3

>  <source_rank_in_scored_call>  (26) 
1

>  <source_current_task>  (26) 
close_aromatic_ring

>  <rotatable_bond_torsions>  (26) 
1,0,2,3;0,2,3,4

>  <scenario>  (26) 
0 3

>  <reason_to_skip>  (26) 
incorrect arom ring closing

$$$$

     RDKit          3D

  6  5  0  0  0  0  0  0  0  0999 V2000
  -28.2470   -7.5270  -32.0350 C   0  0  0  0  0  0  0  0  0  0  0  0
  -27.7090   -7.0020  -33.1720 N   0  0  0  0  0  0  0  0  0  0  0  0
  -28.0510   -8.8870  -31.7570 N   0  0  0  0  0  0  0  0  0  0  0  0
  -27.2100   -9.3400  -30.8700 C   0  0  0  0  0  0  0  0  0  0  0  0
  -26.6190   -8.1000  -30.3530 C   0  0  0  0  0  0  0  0  0  0  0  0
  -25.1865   -7.6597  -30.8600 C   0  0  0  0  0  0  0  0  0  0  0  0
  1  2  2  0
  1  3  1  0
  3  4  1  0
  4  5  2  3
  5  6  1  0
M  END
>  <name>  (27) 
Car Nac Nd0 Car Car Car

>  <indices>  (27) 
[0, 1, 2]

>  <dummy>  (27) 
1

>  <tasks>  (27) 
probe_placing close_aromatic_ring close_aromatic_ring

>  <current_task>  (27) 
close_aromatic_ring

>  <prot_clashes>  (27) 
7

>  <NBS phar>  (27) 
0.22000000000000003

>  <NBS_non-phar>  (27) 
0.6449050426483154

>  <NBS>  (27) 
0.8649050426483154

>  <source_stage>  (27) 
scored

>  <source_iter>  (27) 
2

>  <source_parent_mol>  (27) 
3

>  <source_scenario>  (27) 
0 3

>  <source_rank_in_scored_call>  (27) 
1

>  <source_current_task>  (27) 
close_aromatic_ring

>  <rotatable_bond_torsions>  (27) 
1,0,2,3;0,2,3,4

>  <scenario>  (27) 
0 3

>  <reason_to_skip>  (27) 
incorrect arom ring closing

$$$$

     RDKit          3D

  6  5  0  0  0  0  0  0  0  0999 V2000
  -28.3730   -7.9290  -32.0960 C   0  0  0  0  0  0  0  0  0  0  0  0
  -27.4610   -7.1440  -32.7360 N   0  0  0  0  0  0  0  0  0  0  0  0
  -28.5470   -9.2530  -32.5240 N   0  0  0  0  0  0  0  0  0  0  0  0
  -28.0800  -10.2930  -31.8940 C   0  0  0  0  0  0  0  0  0  0  0  0
  -28.7250  -11.5590  -32.1800 C   0  0  0  0  0  0  0  0  0  0  0  0
  -28.2065  -12.8707  -31.5572 C   0  0  0  0  0  0  0  0  0  0  0  0
  1  2  2  0
  1  3  1  0
  3  4  1  0
  4  5  1  0
  5  6  1  0
M  END
>  <name>  (1) 
Car Nac Nd0 Car Car Car

>  <indices>  (1) 
[0, 1, 2]

>  <dummy>  (1) 
1

>  <tasks>  (1) 
probe_placing close_aromatic_ring close_aromatic_ring

>  <current_task>  (1) 
close_aromatic_ring

>  <prot_clashes>  (1) 
2

>  <NBS phar>  (1) 
0.1

>  <NBS_non-phar>  (1) 
0.5065649032592774

>  <NBS>  (1) 
0.6065649032592774

>  <source_stage>  (1) 
scored

>  <source_iter>  (1) 
2

>  <source_parent_mol>  (1) 
3

>  <source_scenario>  (1) 
0 3

>  <source_rank_in_scored_call>  (1) 
2

>  <source_current_task>  (1) 
close_aromatic_ring

>  <rotatable_bond_torsions>  (1) 
1,0,2,3;0,2,3,4

>  <scenario>  (1) 
0 3

>  <reason_to_skip>  (1) 
incorrect arom ring closing

$$$$

     RDKit          3D

  6  5  0  0  0  0  0  0  0  0999 V2000
  -28.3730   -7.9290  -32.0960 C   0  0  0  0  0  0  0  0  0  0  0  0
  -27.4610   -7.1440  -32.7360 N   0  0  0  0  0  0  0  0  0  0  0  0
  -28.5470   -9.2530  -32.5240 N   0  0  0  0  0  0  0  0  0  0  0  0
  -28.0800  -10.2930  -31.8940 C   0  0  0  0  0  0  0  0  0  0  0  0
  -28.7250  -11.5590  -32.1800 C   0  0  0  0  0  0  0  0  0  0  0  0
  -28.2848  -12.8410  -31.4019 C   0  0  0  0  0  0  0  0  0  0  0  0
  1  2  2  0
  1  3  1  0
  3  4  1  0
  4  5  1  0
  5  6  2  0
M  END
>  <name>  (2) 
Car Nac Nd0 Car Car Car

>  <indices>  (2) 
[0, 1, 2]

>  <dummy>  (2) 
1

>  <tasks>  (2) 
probe_placing close_aromatic_ring close_aromatic_ring

>  <current_task>  (2) 
close_aromatic_ring

>  <prot_clashes>  (2) 
2

>  <NBS phar>  (2) 
0.1

>  <NBS_non-phar>  (2) 
0.5065649032592774

>  <NBS>  (2) 
0.6065649032592774

>  <source_stage>  (2) 
scored

>  <source_iter>  (2) 
2

>  <source_parent_mol>  (2) 
3

>  <source_scenario>  (2) 
0 3

>  <source_rank_in_scored_call>  (2) 
2

>  <source_current_task>  (2) 
close_aromatic_ring

>  <rotatable_bond_torsions>  (2) 
1,0,2,3;0,2,3,4

>  <scenario>  (2) 
0 3

>  <reason_to_skip>  (2) 
incorrect arom ring closing

$$$$

     RDKit          3D

  6  5  0  0  0  0  0  0  0  0999 V2000
  -28.3730   -7.9290  -32.0960 C   0  0  0  0  0  0  0  0  0  0  0  0
  -27.4610   -7.1440  -32.7360 N   0  0  0  0  0  0  0  0  0  0  0  0
  -28.5470   -9.2530  -32.5240 N   0  0  0  0  0  0  0  0  0  0  0  0
  -28.0800  -10.2930  -31.8940 C   0  0  0  0  0  0  0  0  0  0  0  0
  -28.7250  -11.5590  -32.1800 C   0  0  0  0  0  0  0  0  0  0  0  0
  -29.7411  -12.0033  -32.9699 N   0  0  0  0  0  0  0  0  0  0  0  0
  1  2  2  0
  1  3  1  0
  3  4  1  0
  4  5  1  0
  5  6  1  0
M  END
>  <name>  (3) 
Car Nac Nd0 Car Car Nac

>  <indices>  (3) 
[0, 1, 2]

>  <dummy>  (3) 
1

>  <tasks>  (3) 
probe_placing close_aromatic_ring close_aromatic_ring

>  <current_task>  (3) 
close_aromatic_ring

>  <prot_clashes>  (3) 
2

>  <NBS phar>  (3) 
0.1

>  <NBS_non-phar>  (3) 
0.5065649032592774

>  <NBS>  (3) 
0.6065649032592774

>  <source_stage>  (3) 
scored

>  <source_iter>  (3) 
2

>  <source_parent_mol>  (3) 
3

>  <source_scenario>  (3) 
0 3

>  <source_rank_in_scored_call>  (3) 
2

>  <source_current_task>  (3) 
close_aromatic_ring

>  <rotatable_bond_torsions>  (3) 
1,0,2,3;0,2,3,4

>  <scenario>  (3) 
0 3

>  <reason_to_skip>  (3) 
bad angles

$$$$

     RDKit          3D

  6  5  0  0  0  0  0  0  0  0999 V2000
  -28.3730   -7.9290  -32.0960 C   0  0  0  0  0  0  0  0  0  0  0  0
  -27.4610   -7.1440  -32.7360 N   0  0  0  0  0  0  0  0  0  0  0  0
  -28.5470   -9.2530  -32.5240 N   0  0  0  0  0  0  0  0  0  0  0  0
  -28.0800  -10.2930  -31.8940 C   0  0  0  0  0  0  0  0  0  0  0  0
  -28.7250  -11.5590  -32.1800 C   0  0  0  0  0  0  0  0  0  0  0  0
  -27.9876  -12.4798  -31.3909 N   0  0  0  0  0  0  0  0  0  0  0  0
  1  2  2  0
  1  3  1  0
  3  4  1  0
  4  5  1  0
  5  6  1  0
M  END
>  <name>  (4) 
Car Nac Nd0 Car Car Nac

>  <indices>  (4) 
[0, 1, 2]

>  <dummy>  (4) 
1

>  <tasks>  (4) 
probe_placing close_aromatic_ring close_aromatic_ring

>  <current_task>  (4) 
close_aromatic_ring

>  <prot_clashes>  (4) 
2

>  <NBS phar>  (4) 
0.1

>  <NBS_non-phar>  (4) 
0.5065649032592774

>  <NBS>  (4) 
0.6065649032592774

>  <source_stage>  (4) 
scored

>  <source_iter>  (4) 
2

>  <source_parent_mol>  (4) 
3

>  <source_scenario>  (4) 
0 3

>  <source_rank_in_scored_call>  (4) 
2

>  <source_current_task>  (4) 
close_aromatic_ring

>  <rotatable_bond_torsions>  (4) 
1,0,2,3;0,2,3,4

>  <scenario>  (4) 
0 3

>  <reason_to_skip>  (4) 
incorrect arom ring closing

$$$$

     RDKit          3D

  6  5  0  0  0  0  0  0  0  0999 V2000
  -28.3730   -7.9290  -32.0960 C   0  0  0  0  0  0  0  0  0  0  0  0
  -27.4610   -7.1440  -32.7360 N   0  0  0  0  0  0  0  0  0  0  0  0
  -28.5470   -9.2530  -32.5240 N   0  0  0  0  0  0  0  0  0  0  0  0
  -28.0800  -10.2930  -31.8940 C   0  0  0  0  0  0  0  0  0  0  0  0
  -28.7250  -11.5590  -32.1800 C   0  0  0  0  0  0  0  0  0  0  0  0
  -29.7840  -12.0133  -33.0396 C   0  0  0  0  0  0  0  0  0  0  0  0
  1  2  2  0
  1  3  1  0
  3  4  1  0
  4  5  1  0
  5  6  1  0
M  END
>  <name>  (5) 
Car Nac Nd0 Car Car Car

>  <indices>  (5) 
[0, 1, 2]

>  <dummy>  (5) 
1

>  <tasks>  (5) 
probe_placing close_aromatic_ring close_aromatic_ring

>  <current_task>  (5) 
close_aromatic_ring

>  <prot_clashes>  (5) 
2

>  <NBS phar>  (5) 
0.1

>  <NBS_non-phar>  (5) 
0.5065649032592774

>  <NBS>  (5) 
0.6065649032592774

>  <source_stage>  (5) 
scored

>  <source_iter>  (5) 
2

>  <source_parent_mol>  (5) 
3

>  <source_scenario>  (5) 
0 3

>  <source_rank_in_scored_call>  (5) 
2

>  <source_current_task>  (5) 
close_aromatic_ring

>  <rotatable_bond_torsions>  (5) 
1,0,2,3;0,2,3,4

>  <scenario>  (5) 
0 3

>  <reason_to_skip>  (5) 
bad angles

$$$$

     RDKit          3D

  6  5  0  0  0  0  0  0  0  0999 V2000
  -28.3730   -7.9290  -32.0960 C   0  0  0  0  0  0  0  0  0  0  0  0
  -27.4610   -7.1440  -32.7360 N   0  0  0  0  0  0  0  0  0  0  0  0
  -28.5470   -9.2530  -32.5240 N   0  0  0  0  0  0  0  0  0  0  0  0
  -28.0800  -10.2930  -31.8940 C   0  0  0  0  0  0  0  0  0  0  0  0
  -28.7250  -11.5590  -32.1800 C   0  0  0  0  0  0  0  0  0  0  0  0
  -28.2343  -12.7146  -31.4867 C   0  0  0  0  0  0  0  0  0  0  0  0
  1  2  2  0
  1  3  1  0
  3  4  1  0
  4  5  1  0
  5  6  1  0
M  END
>  <name>  (6) 
Car Nac Nd0 Car Car Car

>  <indices>  (6) 
[0, 1, 2]

>  <dummy>  (6) 
1

>  <tasks>  (6) 
probe_placing close_aromatic_ring close_aromatic_ring

>  <current_task>  (6) 
close_aromatic_ring

>  <prot_clashes>  (6) 
2

>  <NBS phar>  (6) 
0.1

>  <NBS_non-phar>  (6) 
0.5065649032592774

>  <NBS>  (6) 
0.6065649032592774

>  <source_stage>  (6) 
scored

>  <source_iter>  (6) 
2

>  <source_parent_mol>  (6) 
3

>  <source_scenario>  (6) 
0 3

>  <source_rank_in_scored_call>  (6) 
2

>  <source_current_task>  (6) 
close_aromatic_ring

>  <rotatable_bond_torsions>  (6) 
1,0,2,3;0,2,3,4

>  <scenario>  (6) 
0 3

>  <reason_to_skip>  (6) 
incorrect arom ring closing

$$$$

     RDKit          3D

  6  5  0  0  0  0  0  0  0  0999 V2000
  -28.3730   -7.9290  -32.0960 C   0  0  0  0  0  0  0  0  0  0  0  0
  -27.4610   -7.1440  -32.7360 N   0  0  0  0  0  0  0  0  0  0  0  0
  -28.5470   -9.2530  -32.5240 N   0  0  0  0  0  0  0  0  0  0  0  0
  -28.0800  -10.2930  -31.8940 C   0  0  0  0  0  0  0  0  0  0  0  0
  -28.7250  -11.5590  -32.1800 C   0  0  0  0  0  0  0  0  0  0  0  0
  -29.7071  -11.1859  -33.0966 N   0  0  0  0  0  0  0  0  0  0  0  0
  1  2  2  0
  1  3  1  0
  3  4  1  0
  4  5  1  0
  5  6  1  0
M  END
>  <name>  (7) 
Car Nac Nd0 Car Car Nac

>  <indices>  (7) 
[0, 1, 2]

>  <dummy>  (7) 
1

>  <tasks>  (7) 
probe_placing close_aromatic_ring close_aromatic_ring

>  <current_task>  (7) 
close_aromatic_ring

>  <prot_clashes>  (7) 
2

>  <NBS phar>  (7) 
0.1

>  <NBS_non-phar>  (7) 
0.5065649032592774

>  <NBS>  (7) 
0.6065649032592774

>  <source_stage>  (7) 
scored

>  <source_iter>  (7) 
2

>  <source_parent_mol>  (7) 
3

>  <source_scenario>  (7) 
0 3

>  <source_rank_in_scored_call>  (7) 
2

>  <source_current_task>  (7) 
close_aromatic_ring

>  <rotatable_bond_torsions>  (7) 
1,0,2,3;0,2,3,4

>  <scenario>  (7) 
0 3

>  <reason_to_skip>  (7) 
incorrect arom ring closing

$$$$

     RDKit          3D

  6  5  0  0  0  0  0  0  0  0999 V2000
  -28.3730   -7.9290  -32.0960 C   0  0  0  0  0  0  0  0  0  0  0  0
  -27.4610   -7.1440  -32.7360 N   0  0  0  0  0  0  0  0  0  0  0  0
  -28.5470   -9.2530  -32.5240 N   0  0  0  0  0  0  0  0  0  0  0  0
  -28.0800  -10.2930  -31.8940 C   0  0  0  0  0  0  0  0  0  0  0  0
  -28.7250  -11.5590  -32.1800 C   0  0  0  0  0  0  0  0  0  0  0  0
  -29.6977  -11.1749  -33.1278 C   0  0  0  0  0  0  0  0  0  0  0  0
  1  2  2  0
  1  3  1  0
  3  4  1  0
  4  5  1  0
  5  6  1  0
M  END
>  <name>  (8) 
Car Nac Nd0 Car Car Car

>  <indices>  (8) 
[0, 1, 2]

>  <dummy>  (8) 
1

>  <tasks>  (8) 
probe_placing close_aromatic_ring close_aromatic_ring

>  <current_task>  (8) 
close_aromatic_ring

>  <prot_clashes>  (8) 
2

>  <NBS phar>  (8) 
0.1

>  <NBS_non-phar>  (8) 
0.5065649032592774

>  <NBS>  (8) 
0.6065649032592774

>  <source_stage>  (8) 
scored

>  <source_iter>  (8) 
2

>  <source_parent_mol>  (8) 
3

>  <source_scenario>  (8) 
0 3

>  <source_rank_in_scored_call>  (8) 
2

>  <source_current_task>  (8) 
close_aromatic_ring

>  <rotatable_bond_torsions>  (8) 
1,0,2,3;0,2,3,4

>  <scenario>  (8) 
0 3

>  <reason_to_skip>  (8) 
incorrect arom ring closing

$$$$

     RDKit          3D

  6  5  0  0  0  0  0  0  0  0999 V2000
  -28.3730   -7.9290  -32.0960 C   0  0  0  0  0  0  0  0  0  0  0  0
  -27.4610   -7.1440  -32.7360 N   0  0  0  0  0  0  0  0  0  0  0  0
  -28.5470   -9.2530  -32.5240 N   0  0  0  0  0  0  0  0  0  0  0  0
  -28.0800  -10.2930  -31.8940 C   0  0  0  0  0  0  0  0  0  0  0  0
  -28.7250  -11.5590  -32.1800 C   0  0  0  0  0  0  0  0  0  0  0  0
  -27.9736  -12.7346  -32.6258 C   0  0  0  0  0  0  0  0  0  0  0  0
  1  2  2  0
  1  3  1  0
  3  4  1  0
  4  5  1  0
  5  6  2  0
M  END
>  <name>  (9) 
Car Nac Nd0 Car Car Car

>  <indices>  (9) 
[0, 1, 2]

>  <dummy>  (9) 
1

>  <tasks>  (9) 
probe_placing close_aromatic_ring close_aromatic_ring

>  <current_task>  (9) 
close_aromatic_ring

>  <prot_clashes>  (9) 
2

>  <NBS phar>  (9) 
0.1

>  <NBS_non-phar>  (9) 
0.5065649032592774

>  <NBS>  (9) 
0.6065649032592774

>  <source_stage>  (9) 
scored

>  <source_iter>  (9) 
2

>  <source_parent_mol>  (9) 
3

>  <source_scenario>  (9) 
0 3

>  <source_rank_in_scored_call>  (9) 
2

>  <source_current_task>  (9) 
close_aromatic_ring

>  <rotatable_bond_torsions>  (9) 
1,0,2,3;0,2,3,4

>  <scenario>  (9) 
0 3

>  <reason_to_skip>  (9) 
incorrect arom ring closing

$$$$

     RDKit          3D

  6  5  0  0  0  0  0  0  0  0999 V2000
  -28.3730   -7.9290  -32.0960 C   0  0  0  0  0  0  0  0  0  0  0  0
  -27.4610   -7.1440  -32.7360 N   0  0  0  0  0  0  0  0  0  0  0  0
  -28.5470   -9.2530  -32.5240 N   0  0  0  0  0  0  0  0  0  0  0  0
  -28.0800  -10.2930  -31.8940 C   0  0  0  0  0  0  0  0  0  0  0  0
  -28.7250  -11.5590  -32.1800 C   0  0  0  0  0  0  0  0  0  0  0  0
    0.0000    0.0000    0.0000 O   0  0  0  0  0  0  0  0  0  0  0  0
  1  2  2  0
  1  3  1  0
  3  4  1  0
  4  5  1  0
  5  6  1  0
M  END
>  <name>  (10) 
Car Nac Nd0 Car Car O_a

>  <indices>  (10) 
[0, 1, 2]

>  <dummy>  (10) 
1

>  <tasks>  (10) 
probe_placing close_aromatic_ring close_aromatic_ring

>  <current_task>  (10) 
close_aromatic_ring

>  <prot_clashes>  (10) 
2

>  <NBS phar>  (10) 
0.1

>  <NBS_non-phar>  (10) 
0.5065649032592774

>  <NBS>  (10) 
0.6065649032592774

>  <source_stage>  (10) 
scored

>  <source_iter>  (10) 
2

>  <source_parent_mol>  (10) 
3

>  <source_scenario>  (10) 
0 3

>  <source_rank_in_scored_call>  (10) 
2

>  <source_current_task>  (10) 
close_aromatic_ring

>  <rotatable_bond_torsions>  (10) 
1,0,2,3;0,2,3,4

>  <scenario>  (10) 
0 3

>  <reason_to_skip>  (10) 
some_atom_counter_exceeded

$$$$

     RDKit          3D

  6  5  0  0  0  0  0  0  0  0999 V2000
  -28.3730   -7.9290  -32.0960 C   0  0  0  0  0  0  0  0  0  0  0  0
  -27.4610   -7.1440  -32.7360 N   0  0  0  0  0  0  0  0  0  0  0  0
  -28.5470   -9.2530  -32.5240 N   0  0  0  0  0  0  0  0  0  0  0  0
  -28.0800  -10.2930  -31.8940 C   0  0  0  0  0  0  0  0  0  0  0  0
  -28.7250  -11.5590  -32.1800 C   0  0  0  0  0  0  0  0  0  0  0  0
  -28.0825  -12.5324  -31.3954 N   0  0  0  0  0  0  0  0  0  0  0  0
  1  2  2  0
  1  3  1  0
  3  4  1  0
  4  5  1  0
  5  6  2  0
M  END
>  <name>  (11) 
Car Nac Nd0 Car Car Nac

>  <indices>  (11) 
[0, 1, 2]

>  <dummy>  (11) 
1

>  <tasks>  (11) 
probe_placing close_aromatic_ring close_aromatic_ring

>  <current_task>  (11) 
close_aromatic_ring

>  <prot_clashes>  (11) 
2

>  <NBS phar>  (11) 
0.1

>  <NBS_non-phar>  (11) 
0.5065649032592774

>  <NBS>  (11) 
0.6065649032592774

>  <source_stage>  (11) 
scored

>  <source_iter>  (11) 
2

>  <source_parent_mol>  (11) 
3

>  <source_scenario>  (11) 
0 3

>  <source_rank_in_scored_call>  (11) 
2

>  <source_current_task>  (11) 
close_aromatic_ring

>  <rotatable_bond_torsions>  (11) 
1,0,2,3;0,2,3,4

>  <scenario>  (11) 
0 3

>  <reason_to_skip>  (11) 
incorrect arom ring closing

$$$$

     RDKit          3D

  6  5  0  0  0  0  0  0  0  0999 V2000
  -28.3730   -7.9290  -32.0960 C   0  0  0  0  0  0  0  0  0  0  0  0
  -27.4610   -7.1440  -32.7360 N   0  0  0  0  0  0  0  0  0  0  0  0
  -28.5470   -9.2530  -32.5240 N   0  0  0  0  0  0  0  0  0  0  0  0
  -28.0800  -10.2930  -31.8940 C   0  0  0  0  0  0  0  0  0  0  0  0
  -28.7250  -11.5590  -32.1800 C   0  0  0  0  0  0  0  0  0  0  0  0
  -28.5383  -12.8403  -31.7403 N   0  0  0  0  0  0  0  0  0  0  0  0
  1  2  2  0
  1  3  1  0
  3  4  1  0
  4  5  1  0
  5  6  1  0
M  END
>  <name>  (12) 
Car Nac Nd0 Car Car Nd0

>  <indices>  (12) 
[0, 1, 2]

>  <dummy>  (12) 
1

>  <tasks>  (12) 
probe_placing close_aromatic_ring close_aromatic_ring

>  <current_task>  (12) 
close_aromatic_ring

>  <prot_clashes>  (12) 
2

>  <NBS phar>  (12) 
0.1

>  <NBS_non-phar>  (12) 
0.5065649032592774

>  <NBS>  (12) 
0.6065649032592774

>  <source_stage>  (12) 
scored

>  <source_iter>  (12) 
2

>  <source_parent_mol>  (12) 
3

>  <source_scenario>  (12) 
0 3

>  <source_rank_in_scored_call>  (12) 
2

>  <source_current_task>  (12) 
close_aromatic_ring

>  <rotatable_bond_torsions>  (12) 
1,0,2,3;0,2,3,4

>  <scenario>  (12) 
0 3

>  <reason_to_skip>  (12) 
incorrect arom ring closing

$$$$

     RDKit          3D

  6  5  0  0  0  0  0  0  0  0999 V2000
  -28.3730   -7.9290  -32.0960 C   0  0  0  0  0  0  0  0  0  0  0  0
  -27.4610   -7.1440  -32.7360 N   0  0  0  0  0  0  0  0  0  0  0  0
  -28.5470   -9.2530  -32.5240 N   0  0  0  0  0  0  0  0  0  0  0  0
  -28.0800  -10.2930  -31.8940 C   0  0  0  0  0  0  0  0  0  0  0  0
  -28.7250  -11.5590  -32.1800 C   0  0  0  0  0  0  0  0  0  0  0  0
  -28.2633  -12.7217  -31.5445 N   0  0  0  0  0  0  0  0  0  0  0  0
  1  2  2  0
  1  3  1  0
  3  4  1  0
  4  5  1  0
  5  6  1  0
M  END
>  <name>  (13) 
Car Nac Nd0 Car Car Nac

>  <indices>  (13) 
[0, 1, 2]

>  <dummy>  (13) 
1

>  <tasks>  (13) 
probe_placing close_aromatic_ring close_aromatic_ring

>  <current_task>  (13) 
close_aromatic_ring

>  <prot_clashes>  (13) 
2

>  <NBS phar>  (13) 
0.1

>  <NBS_non-phar>  (13) 
0.5065649032592774

>  <NBS>  (13) 
0.6065649032592774

>  <source_stage>  (13) 
scored

>  <source_iter>  (13) 
2

>  <source_parent_mol>  (13) 
3

>  <source_scenario>  (13) 
0 3

>  <source_rank_in_scored_call>  (13) 
2

>  <source_current_task>  (13) 
close_aromatic_ring

>  <rotatable_bond_torsions>  (13) 
1,0,2,3;0,2,3,4

>  <scenario>  (13) 
0 3

>  <reason_to_skip>  (13) 
incorrect arom ring closing

$$$$

     RDKit          3D

  6  5  0  0  0  0  0  0  0  0999 V2000
  -28.3730   -7.9290  -32.0960 C   0  0  0  0  0  0  0  0  0  0  0  0
  -27.4610   -7.1440  -32.7360 N   0  0  0  0  0  0  0  0  0  0  0  0
  -28.5470   -9.2530  -32.5240 N   0  0  0  0  0  0  0  0  0  0  0  0
  -28.0800  -10.2930  -31.8940 C   0  0  0  0  0  0  0  0  0  0  0  0
  -28.7250  -11.5590  -32.1800 C   0  0  0  0  0  0  0  0  0  0  0  0
    0.0000    0.0000    0.0000 O   0  0  0  0  0  0  0  0  0  0  0  0
  1  2  2  0
  1  3  1  0
  3  4  1  0
  4  5  1  0
  5  6  1  0
M  END
>  <name>  (14) 
Car Nac Nd0 Car Car O_a

>  <indices>  (14) 
[0, 1, 2]

>  <dummy>  (14) 
1

>  <tasks>  (14) 
probe_placing close_aromatic_ring close_aromatic_ring

>  <current_task>  (14) 
close_aromatic_ring

>  <prot_clashes>  (14) 
2

>  <NBS phar>  (14) 
0.1

>  <NBS_non-phar>  (14) 
0.5065649032592774

>  <NBS>  (14) 
0.6065649032592774

>  <source_stage>  (14) 
scored

>  <source_iter>  (14) 
2

>  <source_parent_mol>  (14) 
3

>  <source_scenario>  (14) 
0 3

>  <source_rank_in_scored_call>  (14) 
2

>  <source_current_task>  (14) 
close_aromatic_ring

>  <rotatable_bond_torsions>  (14) 
1,0,2,3;0,2,3,4

>  <scenario>  (14) 
0 3

>  <reason_to_skip>  (14) 
some_atom_counter_exceeded

$$$$

     RDKit          3D

  6  5  0  0  0  0  0  0  0  0999 V2000
  -28.3730   -7.9290  -32.0960 C   0  0  0  0  0  0  0  0  0  0  0  0
  -27.4610   -7.1440  -32.7360 N   0  0  0  0  0  0  0  0  0  0  0  0
  -28.5470   -9.2530  -32.5240 N   0  0  0  0  0  0  0  0  0  0  0  0
  -28.0800  -10.2930  -31.8940 C   0  0  0  0  0  0  0  0  0  0  0  0
  -28.7250  -11.5590  -32.1800 C   0  0  0  0  0  0  0  0  0  0  0  0
  -27.9950  -12.3272  -33.1208 C   0  0  0  0  0  0  0  0  0  0  0  0
  1  2  2  0
  1  3  1  0
  3  4  1  0
  4  5  1  0
  5  6  1  0
M  END
>  <name>  (15) 
Car Nac Nd0 Car Car Car

>  <indices>  (15) 
[0, 1, 2]

>  <dummy>  (15) 
1

>  <tasks>  (15) 
probe_placing close_aromatic_ring close_aromatic_ring

>  <current_task>  (15) 
close_aromatic_ring

>  <prot_clashes>  (15) 
2

>  <NBS phar>  (15) 
0.1

>  <NBS_non-phar>  (15) 
0.5065649032592774

>  <NBS>  (15) 
0.6065649032592774

>  <source_stage>  (15) 
scored

>  <source_iter>  (15) 
2

>  <source_parent_mol>  (15) 
3

>  <source_scenario>  (15) 
0 3

>  <source_rank_in_scored_call>  (15) 
2

>  <source_current_task>  (15) 
close_aromatic_ring

>  <rotatable_bond_torsions>  (15) 
1,0,2,3;0,2,3,4

>  <scenario>  (15) 
0 3

>  <reason_to_skip>  (15) 
incorrect arom ring closing

$$$$

     RDKit          3D

  6  5  0  0  0  0  0  0  0  0999 V2000
  -28.3730   -7.9290  -32.0960 C   0  0  0  0  0  0  0  0  0  0  0  0
  -27.4610   -7.1440  -32.7360 N   0  0  0  0  0  0  0  0  0  0  0  0
  -28.5470   -9.2530  -32.5240 N   0  0  0  0  0  0  0  0  0  0  0  0
  -28.0800  -10.2930  -31.8940 C   0  0  0  0  0  0  0  0  0  0  0  0
  -28.7250  -11.5590  -32.1800 C   0  0  0  0  0  0  0  0  0  0  0  0
  -29.7191  -11.6360  -33.0553 N   0  0  0  0  0  0  0  0  0  0  0  0
  1  2  2  0
  1  3  1  0
  3  4  1  0
  4  5  1  0
  5  6  1  0
M  END
>  <name>  (16) 
Car Nac Nd0 Car Car Nd0

>  <indices>  (16) 
[0, 1, 2]

>  <dummy>  (16) 
1

>  <tasks>  (16) 
probe_placing close_aromatic_ring close_aromatic_ring

>  <current_task>  (16) 
close_aromatic_ring

>  <prot_clashes>  (16) 
2

>  <NBS phar>  (16) 
0.1

>  <NBS_non-phar>  (16) 
0.5065649032592774

>  <NBS>  (16) 
0.6065649032592774

>  <source_stage>  (16) 
scored

>  <source_iter>  (16) 
2

>  <source_parent_mol>  (16) 
3

>  <source_scenario>  (16) 
0 3

>  <source_rank_in_scored_call>  (16) 
2

>  <source_current_task>  (16) 
close_aromatic_ring

>  <rotatable_bond_torsions>  (16) 
1,0,2,3;0,2,3,4

>  <scenario>  (16) 
0 3

>  <reason_to_skip>  (16) 
intramol repulsion

$$$$

     RDKit          3D

  6  5  0  0  0  0  0  0  0  0999 V2000
  -28.3730   -7.9290  -32.0960 C   0  0  0  0  0  0  0  0  0  0  0  0
  -27.4610   -7.1440  -32.7360 N   0  0  0  0  0  0  0  0  0  0  0  0
  -28.5470   -9.2530  -32.5240 N   0  0  0  0  0  0  0  0  0  0  0  0
  -28.0800  -10.2930  -31.8940 C   0  0  0  0  0  0  0  0  0  0  0  0
  -28.7250  -11.5590  -32.1800 C   0  0  0  0  0  0  0  0  0  0  0  0
  -28.2567  -12.6507  -31.5608 N   0  0  0  0  0  0  0  0  0  0  0  0
  1  2  2  0
  1  3  1  0
  3  4  1  0
  4  5  1  0
  5  6  1  0
M  END
>  <name>  (17) 
Car Nac Nd0 Car Car Nd0

>  <indices>  (17) 
[0, 1, 2]

>  <dummy>  (17) 
1

>  <tasks>  (17) 
probe_placing close_aromatic_ring close_aromatic_ring

>  <current_task>  (17) 
close_aromatic_ring

>  <prot_clashes>  (17) 
2

>  <NBS phar>  (17) 
0.1

>  <NBS_non-phar>  (17) 
0.5065649032592774

>  <NBS>  (17) 
0.6065649032592774

>  <source_stage>  (17) 
scored

>  <source_iter>  (17) 
2

>  <source_parent_mol>  (17) 
3

>  <source_scenario>  (17) 
0 3

>  <source_rank_in_scored_call>  (17) 
2

>  <source_current_task>  (17) 
close_aromatic_ring

>  <rotatable_bond_torsions>  (17) 
1,0,2,3;0,2,3,4

>  <scenario>  (17) 
0 3

>  <reason_to_skip>  (17) 
incorrect arom ring closing

$$$$

     RDKit          3D

  6  5  0  0  0  0  0  0  0  0999 V2000
  -28.3730   -7.9290  -32.0960 C   0  0  0  0  0  0  0  0  0  0  0  0
  -27.4610   -7.1440  -32.7360 N   0  0  0  0  0  0  0  0  0  0  0  0
  -28.5470   -9.2530  -32.5240 N   0  0  0  0  0  0  0  0  0  0  0  0
  -28.0800  -10.2930  -31.8940 C   0  0  0  0  0  0  0  0  0  0  0  0
  -28.7250  -11.5590  -32.1800 C   0  0  0  0  0  0  0  0  0  0  0  0
    0.0000    0.0000    0.0000 S   0  0  0  0  0  0  0  0  0  0  0  0
  1  2  2  0
  1  3  1  0
  3  4  1  0
  4  5  1  0
  5  6  1  0
M  END
>  <name>  (18) 
Car Nac Nd0 Car Car Sul

>  <indices>  (18) 
[0, 1, 2]

>  <dummy>  (18) 
1

>  <tasks>  (18) 
probe_placing close_aromatic_ring close_aromatic_ring

>  <current_task>  (18) 
close_aromatic_ring

>  <prot_clashes>  (18) 
2

>  <NBS phar>  (18) 
0.1

>  <NBS_non-phar>  (18) 
0.5065649032592774

>  <NBS>  (18) 
0.6065649032592774

>  <source_stage>  (18) 
scored

>  <source_iter>  (18) 
2

>  <source_parent_mol>  (18) 
3

>  <source_scenario>  (18) 
0 3

>  <source_rank_in_scored_call>  (18) 
2

>  <source_current_task>  (18) 
close_aromatic_ring

>  <rotatable_bond_torsions>  (18) 
1,0,2,3;0,2,3,4

>  <scenario>  (18) 
0 3

>  <reason_to_skip>  (18) 
some_atom_counter_exceeded

$$$$

     RDKit          3D

  6  5  0  0  0  0  0  0  0  0999 V2000
  -28.3730   -7.9290  -32.0960 C   0  0  0  0  0  0  0  0  0  0  0  0
  -27.4610   -7.1440  -32.7360 N   0  0  0  0  0  0  0  0  0  0  0  0
  -28.5470   -9.2530  -32.5240 N   0  0  0  0  0  0  0  0  0  0  0  0
  -28.0800  -10.2930  -31.8940 C   0  0  0  0  0  0  0  0  0  0  0  0
  -28.7250  -11.5590  -32.1800 C   0  0  0  0  0  0  0  0  0  0  0  0
  -28.0867  -12.6109  -32.9502 C   0  0  0  0  0  0  0  0  0  0  0  0
  1  2  2  0
  1  3  1  0
  3  4  1  0
  4  5  1  0
  5  6  1  0
M  END
>  <name>  (19) 
Car Nac Nd0 Car Car Car

>  <indices>  (19) 
[0, 1, 2]

>  <dummy>  (19) 
1

>  <tasks>  (19) 
probe_placing close_aromatic_ring close_aromatic_ring

>  <current_task>  (19) 
close_aromatic_ring

>  <prot_clashes>  (19) 
2

>  <NBS phar>  (19) 
0.1

>  <NBS_non-phar>  (19) 
0.5065649032592774

>  <NBS>  (19) 
0.6065649032592774

>  <source_stage>  (19) 
scored

>  <source_iter>  (19) 
2

>  <source_parent_mol>  (19) 
3

>  <source_scenario>  (19) 
0 3

>  <source_rank_in_scored_call>  (19) 
2

>  <source_current_task>  (19) 
close_aromatic_ring

>  <rotatable_bond_torsions>  (19) 
1,0,2,3;0,2,3,4

>  <scenario>  (19) 
0 3

>  <reason_to_skip>  (19) 
incorrect arom ring closing

$$$$

     RDKit          3D

  6  5  0  0  0  0  0  0  0  0999 V2000
  -28.3730   -7.9290  -32.0960 C   0  0  0  0  0  0  0  0  0  0  0  0
  -27.4610   -7.1440  -32.7360 N   0  0  0  0  0  0  0  0  0  0  0  0
  -28.5470   -9.2530  -32.5240 N   0  0  0  0  0  0  0  0  0  0  0  0
  -28.0800  -10.2930  -31.8940 C   0  0  0  0  0  0  0  0  0  0  0  0
  -28.7250  -11.5590  -32.1800 C   0  0  0  0  0  0  0  0  0  0  0  0
  -29.6665  -11.9839  -32.9640 N   0  0  0  0  0  0  0  0  0  0  0  0
  1  2  2  0
  1  3  1  0
  3  4  1  0
  4  5  1  0
  5  6  1  0
M  END
>  <name>  (20) 
Car Nac Nd0 Car Car Nd0

>  <indices>  (20) 
[0, 1, 2]

>  <dummy>  (20) 
1

>  <tasks>  (20) 
probe_placing close_aromatic_ring close_aromatic_ring

>  <current_task>  (20) 
close_aromatic_ring

>  <prot_clashes>  (20) 
2

>  <NBS phar>  (20) 
0.1

>  <NBS_non-phar>  (20) 
0.5065649032592774

>  <NBS>  (20) 
0.6065649032592774

>  <source_stage>  (20) 
scored

>  <source_iter>  (20) 
2

>  <source_parent_mol>  (20) 
3

>  <source_scenario>  (20) 
0 3

>  <source_rank_in_scored_call>  (20) 
2

>  <source_current_task>  (20) 
close_aromatic_ring

>  <rotatable_bond_torsions>  (20) 
1,0,2,3;0,2,3,4

>  <scenario>  (20) 
0 3

>  <reason_to_skip>  (20) 
bad angles

$$$$

     RDKit          3D

  6  5  0  0  0  0  0  0  0  0999 V2000
  -28.3730   -7.9290  -32.0960 C   0  0  0  0  0  0  0  0  0  0  0  0
  -27.4610   -7.1440  -32.7360 N   0  0  0  0  0  0  0  0  0  0  0  0
  -28.5470   -9.2530  -32.5240 N   0  0  0  0  0  0  0  0  0  0  0  0
  -28.0800  -10.2930  -31.8940 C   0  0  0  0  0  0  0  0  0  0  0  0
  -28.7250  -11.5590  -32.1800 C   0  0  0  0  0  0  0  0  0  0  0  0
    0.0000    0.0000    0.0000 O   0  0  0  0  0  0  0  0  0  0  0  0
  1  2  2  0
  1  3  1  0
  3  4  1  0
  4  5  1  0
  5  6  1  0
M  END
>  <name>  (21) 
Car Nac Nd0 Car Car O_a

>  <indices>  (21) 
[0, 1, 2]

>  <dummy>  (21) 
1

>  <tasks>  (21) 
probe_placing close_aromatic_ring close_aromatic_ring

>  <current_task>  (21) 
close_aromatic_ring

>  <prot_clashes>  (21) 
2

>  <NBS phar>  (21) 
0.1

>  <NBS_non-phar>  (21) 
0.5065649032592774

>  <NBS>  (21) 
0.6065649032592774

>  <source_stage>  (21) 
scored

>  <source_iter>  (21) 
2

>  <source_parent_mol>  (21) 
3

>  <source_scenario>  (21) 
0 3

>  <source_rank_in_scored_call>  (21) 
2

>  <source_current_task>  (21) 
close_aromatic_ring

>  <rotatable_bond_torsions>  (21) 
1,0,2,3;0,2,3,4

>  <scenario>  (21) 
0 3

>  <reason_to_skip>  (21) 
some_atom_counter_exceeded

$$$$

     RDKit          3D

  6  5  0  0  0  0  0  0  0  0999 V2000
  -28.3730   -7.9290  -32.0960 C   0  0  0  0  0  0  0  0  0  0  0  0
  -27.4610   -7.1440  -32.7360 N   0  0  0  0  0  0  0  0  0  0  0  0
  -28.5470   -9.2530  -32.5240 N   0  0  0  0  0  0  0  0  0  0  0  0
  -28.0800  -10.2930  -31.8940 C   0  0  0  0  0  0  0  0  0  0  0  0
  -28.7250  -11.5590  -32.1800 C   0  0  0  0  0  0  0  0  0  0  0  0
    0.0000    0.0000    0.0000 S   0  0  0  0  0  0  0  0  0  0  0  0
  1  2  2  0
  1  3  1  0
  3  4  1  0
  4  5  1  0
  5  6  1  0
M  END
>  <name>  (22) 
Car Nac Nd0 Car Car Sul

>  <indices>  (22) 
[0, 1, 2]

>  <dummy>  (22) 
1

>  <tasks>  (22) 
probe_placing close_aromatic_ring close_aromatic_ring

>  <current_task>  (22) 
close_aromatic_ring

>  <prot_clashes>  (22) 
2

>  <NBS phar>  (22) 
0.1

>  <NBS_non-phar>  (22) 
0.5065649032592774

>  <NBS>  (22) 
0.6065649032592774

>  <source_stage>  (22) 
scored

>  <source_iter>  (22) 
2

>  <source_parent_mol>  (22) 
3

>  <source_scenario>  (22) 
0 3

>  <source_rank_in_scored_call>  (22) 
2

>  <source_current_task>  (22) 
close_aromatic_ring

>  <rotatable_bond_torsions>  (22) 
1,0,2,3;0,2,3,4

>  <scenario>  (22) 
0 3

>  <reason_to_skip>  (22) 
some_atom_counter_exceeded

$$$$

     RDKit          3D

  6  5  0  0  0  0  0  0  0  0999 V2000
  -28.3730   -7.9290  -32.0960 C   0  0  0  0  0  0  0  0  0  0  0  0
  -27.4610   -7.1440  -32.7360 N   0  0  0  0  0  0  0  0  0  0  0  0
  -28.5470   -9.2530  -32.5240 N   0  0  0  0  0  0  0  0  0  0  0  0
  -28.0800  -10.2930  -31.8940 C   0  0  0  0  0  0  0  0  0  0  0  0
  -28.7250  -11.5590  -32.1800 C   0  0  0  0  0  0  0  0  0  0  0  0
    0.0000    0.0000    0.0000 S   0  0  0  0  0  0  0  0  0  0  0  0
  1  2  2  0
  1  3  1  0
  3  4  1  0
  4  5  1  0
  5  6  1  0
M  END
>  <name>  (23) 
Car Nac Nd0 Car Car Sul

>  <indices>  (23) 
[0, 1, 2]

>  <dummy>  (23) 
1

>  <tasks>  (23) 
probe_placing close_aromatic_ring close_aromatic_ring

>  <current_task>  (23) 
close_aromatic_ring

>  <prot_clashes>  (23) 
2

>  <NBS phar>  (23) 
0.1

>  <NBS_non-phar>  (23) 
0.5065649032592774

>  <NBS>  (23) 
0.6065649032592774

>  <source_stage>  (23) 
scored

>  <source_iter>  (23) 
2

>  <source_parent_mol>  (23) 
3

>  <source_scenario>  (23) 
0 3

>  <source_rank_in_scored_call>  (23) 
2

>  <source_current_task>  (23) 
close_aromatic_ring

>  <rotatable_bond_torsions>  (23) 
1,0,2,3;0,2,3,4

>  <scenario>  (23) 
0 3

>  <reason_to_skip>  (23) 
some_atom_counter_exceeded

$$$$

     RDKit          3D

  6  5  0  0  0  0  0  0  0  0999 V2000
  -28.3730   -7.9290  -32.0960 C   0  0  0  0  0  0  0  0  0  0  0  0
  -27.4610   -7.1440  -32.7360 N   0  0  0  0  0  0  0  0  0  0  0  0
  -28.5470   -9.2530  -32.5240 N   0  0  0  0  0  0  0  0  0  0  0  0
  -28.0800  -10.2930  -31.8940 C   0  0  0  0  0  0  0  0  0  0  0  0
  -28.7250  -11.5590  -32.1800 C   0  0  0  0  0  0  0  0  0  0  0  0
  -29.3755  -12.1538  -31.1138 C   0  0  0  0  0  0  0  0  0  0  0  0
  1  2  2  0
  1  3  1  0
  3  4  1  0
  4  5  1  0
  5  6  2  0
M  END
>  <name>  (24) 
Car Nac Nd0 Car Car Car

>  <indices>  (24) 
[0, 1, 2]

>  <dummy>  (24) 
1

>  <tasks>  (24) 
probe_placing close_aromatic_ring close_aromatic_ring

>  <current_task>  (24) 
close_aromatic_ring

>  <prot_clashes>  (24) 
2

>  <NBS phar>  (24) 
0.1

>  <NBS_non-phar>  (24) 
0.5065649032592774

>  <NBS>  (24) 
0.6065649032592774

>  <source_stage>  (24) 
scored

>  <source_iter>  (24) 
2

>  <source_parent_mol>  (24) 
3

>  <source_scenario>  (24) 
0 3

>  <source_rank_in_scored_call>  (24) 
2

>  <source_current_task>  (24) 
close_aromatic_ring

>  <rotatable_bond_torsions>  (24) 
1,0,2,3;0,2,3,4

>  <scenario>  (24) 
0 3

>  <reason_to_skip>  (24) 
incorrect arom ring closing

$$$$

     RDKit          3D

  6  5  0  0  0  0  0  0  0  0999 V2000
  -28.3730   -7.9290  -32.0960 C   0  0  0  0  0  0  0  0  0  0  0  0
  -27.4610   -7.1440  -32.7360 N   0  0  0  0  0  0  0  0  0  0  0  0
  -28.5470   -9.2530  -32.5240 N   0  0  0  0  0  0  0  0  0  0  0  0
  -28.0800  -10.2930  -31.8940 C   0  0  0  0  0  0  0  0  0  0  0  0
  -28.7250  -11.5590  -32.1800 C   0  0  0  0  0  0  0  0  0  0  0  0
    0.0000    0.0000    0.0000 S   0  0  0  0  0  0  0  0  0  0  0  0
  1  2  2  0
  1  3  1  0
  3  4  1  0
  4  5  1  0
  5  6  1  0
M  END
>  <name>  (25) 
Car Nac Nd0 Car Car Sul

>  <indices>  (25) 
[0, 1, 2]

>  <dummy>  (25) 
1

>  <tasks>  (25) 
probe_placing close_aromatic_ring close_aromatic_ring

>  <current_task>  (25) 
close_aromatic_ring

>  <prot_clashes>  (25) 
2

>  <NBS phar>  (25) 
0.1

>  <NBS_non-phar>  (25) 
0.5065649032592774

>  <NBS>  (25) 
0.6065649032592774

>  <source_stage>  (25) 
scored

>  <source_iter>  (25) 
2

>  <source_parent_mol>  (25) 
3

>  <source_scenario>  (25) 
0 3

>  <source_rank_in_scored_call>  (25) 
2

>  <source_current_task>  (25) 
close_aromatic_ring

>  <rotatable_bond_torsions>  (25) 
1,0,2,3;0,2,3,4

>  <scenario>  (25) 
0 3

>  <reason_to_skip>  (25) 
some_atom_counter_exceeded

$$$$

     RDKit          3D

  6  5  0  0  0  0  0  0  0  0999 V2000
  -28.3730   -7.9290  -32.0960 C   0  0  0  0  0  0  0  0  0  0  0  0
  -27.4610   -7.1440  -32.7360 N   0  0  0  0  0  0  0  0  0  0  0  0
  -28.5470   -9.2530  -32.5240 N   0  0  0  0  0  0  0  0  0  0  0  0
  -28.0800  -10.2930  -31.8940 C   0  0  0  0  0  0  0  0  0  0  0  0
  -28.7250  -11.5590  -32.1800 C   0  0  0  0  0  0  0  0  0  0  0  0
    0.0000    0.0000    0.0000 O   0  0  0  0  0  0  0  0  0  0  0  0
  1  2  2  0
  1  3  1  0
  3  4  1  0
  4  5  1  0
  5  6  1  0
M  END
>  <name>  (26) 
Car Nac Nd0 Car Car O_a

>  <indices>  (26) 
[0, 1, 2]

>  <dummy>  (26) 
1

>  <tasks>  (26) 
probe_placing close_aromatic_ring close_aromatic_ring

>  <current_task>  (26) 
close_aromatic_ring

>  <prot_clashes>  (26) 
2

>  <NBS phar>  (26) 
0.1

>  <NBS_non-phar>  (26) 
0.5065649032592774

>  <NBS>  (26) 
0.6065649032592774

>  <source_stage>  (26) 
scored

>  <source_iter>  (26) 
2

>  <source_parent_mol>  (26) 
3

>  <source_scenario>  (26) 
0 3

>  <source_rank_in_scored_call>  (26) 
2

>  <source_current_task>  (26) 
close_aromatic_ring

>  <rotatable_bond_torsions>  (26) 
1,0,2,3;0,2,3,4

>  <scenario>  (26) 
0 3

>  <reason_to_skip>  (26) 
some_atom_counter_exceeded

$$$$

     RDKit          3D

  6  5  0  0  0  0  0  0  0  0999 V2000
  -28.3730   -7.9290  -32.0960 C   0  0  0  0  0  0  0  0  0  0  0  0
  -27.4610   -7.1440  -32.7360 N   0  0  0  0  0  0  0  0  0  0  0  0
  -28.5470   -9.2530  -32.5240 N   0  0  0  0  0  0  0  0  0  0  0  0
  -28.0800  -10.2930  -31.8940 C   0  0  0  0  0  0  0  0  0  0  0  0
  -28.7250  -11.5590  -32.1800 C   0  0  0  0  0  0  0  0  0  0  0  0
    0.0000    0.0000    0.0000 S   0  0  0  0  0  0  0  0  0  0  0  0
  1  2  2  0
  1  3  1  0
  3  4  1  0
  4  5  1  0
  5  6  1  0
M  END
>  <name>  (27) 
Car Nac Nd0 Car Car Sul

>  <indices>  (27) 
[0, 1, 2]

>  <dummy>  (27) 
1

>  <tasks>  (27) 
probe_placing close_aromatic_ring close_aromatic_ring

>  <current_task>  (27) 
close_aromatic_ring

>  <prot_clashes>  (27) 
2

>  <NBS phar>  (27) 
0.1

>  <NBS_non-phar>  (27) 
0.5065649032592774

>  <NBS>  (27) 
0.6065649032592774

>  <source_stage>  (27) 
scored

>  <source_iter>  (27) 
2

>  <source_parent_mol>  (27) 
3

>  <source_scenario>  (27) 
0 3

>  <source_rank_in_scored_call>  (27) 
2

>  <source_current_task>  (27) 
close_aromatic_ring

>  <rotatable_bond_torsions>  (27) 
1,0,2,3;0,2,3,4

>  <scenario>  (27) 
0 3

>  <reason_to_skip>  (27) 
some_atom_counter_exceeded

$$$$

     RDKit          3D

  6  5  0  0  0  0  0  0  0  0999 V2000
  -28.3730   -7.9290  -32.0960 C   0  0  0  0  0  0  0  0  0  0  0  0
  -27.4610   -7.1440  -32.7360 N   0  0  0  0  0  0  0  0  0  0  0  0
  -28.5470   -9.2530  -32.5240 N   0  0  0  0  0  0  0  0  0  0  0  0
  -28.0800  -10.2930  -31.8940 C   0  0  0  0  0  0  0  0  0  0  0  0
  -28.7250  -11.5590  -32.1800 C   0  0  0  0  0  0  0  0  0  0  0  0
    0.0000    0.0000    0.0000 S   0  0  0  0  0  0  0  0  0  0  0  0
  1  2  2  0
  1  3  1  0
  3  4  1  0
  4  5  1  0
  5  6  1  0
M  END
>  <name>  (28) 
Car Nac Nd0 Car Car Sul

>  <indices>  (28) 
[0, 1, 2]

>  <dummy>  (28) 
1

>  <tasks>  (28) 
probe_placing close_aromatic_ring close_aromatic_ring

>  <current_task>  (28) 
close_aromatic_ring

>  <prot_clashes>  (28) 
2

>  <NBS phar>  (28) 
0.1

>  <NBS_non-phar>  (28) 
0.5065649032592774

>  <NBS>  (28) 
0.6065649032592774

>  <source_stage>  (28) 
scored

>  <source_iter>  (28) 
2

>  <source_parent_mol>  (28) 
3

>  <source_scenario>  (28) 
0 3

>  <source_rank_in_scored_call>  (28) 
2

>  <source_current_task>  (28) 
close_aromatic_ring

>  <rotatable_bond_torsions>  (28) 
1,0,2,3;0,2,3,4

>  <scenario>  (28) 
0 3

>  <reason_to_skip>  (28) 
some_atom_counter_exceeded

$$$$

     RDKit          3D

  6  5  0  0  0  0  0  0  0  0999 V2000
  -28.3730   -7.9290  -32.0960 C   0  0  0  0  0  0  0  0  0  0  0  0
  -27.4610   -7.1440  -32.7360 N   0  0  0  0  0  0  0  0  0  0  0  0
  -28.5470   -9.2530  -32.5240 N   0  0  0  0  0  0  0  0  0  0  0  0
  -28.0800  -10.2930  -31.8940 C   0  0  0  0  0  0  0  0  0  0  0  0
  -28.7250  -11.5590  -32.1800 C   0  0  0  0  0  0  0  0  0  0  0  0
  -29.3392  -12.2931  -31.1424 C   0  0  0  0  0  0  0  0  0  0  0  0
  1  2  2  0
  1  3  1  0
  3  4  1  0
  4  5  1  0
  5  6  1  0
M  END
>  <name>  (29) 
Car Nac Nd0 Car Car Car

>  <indices>  (29) 
[0, 1, 2]

>  <dummy>  (29) 
1

>  <tasks>  (29) 
probe_placing close_aromatic_ring close_aromatic_ring

>  <current_task>  (29) 
close_aromatic_ring

>  <prot_clashes>  (29) 
2

>  <NBS phar>  (29) 
0.1

>  <NBS_non-phar>  (29) 
0.5065649032592774

>  <NBS>  (29) 
0.6065649032592774

>  <source_stage>  (29) 
scored

>  <source_iter>  (29) 
2

>  <source_parent_mol>  (29) 
3

>  <source_scenario>  (29) 
0 3

>  <source_rank_in_scored_call>  (29) 
2

>  <source_current_task>  (29) 
close_aromatic_ring

>  <rotatable_bond_torsions>  (29) 
1,0,2,3;0,2,3,4

>  <scenario>  (29) 
0 3

>  <reason_to_skip>  (29) 
incorrect arom ring closing

$$$$

     RDKit          3D

  6  5  0  0  0  0  0  0  0  0999 V2000
  -28.3730   -7.9290  -32.0960 C   0  0  0  0  0  0  0  0  0  0  0  0
  -27.4610   -7.1440  -32.7360 N   0  0  0  0  0  0  0  0  0  0  0  0
  -28.5470   -9.2530  -32.5240 N   0  0  0  0  0  0  0  0  0  0  0  0
  -28.0800  -10.2930  -31.8940 C   0  0  0  0  0  0  0  0  0  0  0  0
  -28.7250  -11.5590  -32.1800 C   0  0  0  0  0  0  0  0  0  0  0  0
  -29.8737  -12.0378  -31.2561 C   0  0  0  0  0  0  0  0  0  0  0  0
  1  2  2  0
  1  3  1  0
  3  4  1  0
  4  5  1  0
  5  6  1  0
M  END
>  <name>  (30) 
Car Nac Nd0 Car Car Car

>  <indices>  (30) 
[0, 1, 2]

>  <dummy>  (30) 
1

>  <tasks>  (30) 
probe_placing close_aromatic_ring close_aromatic_ring

>  <current_task>  (30) 
close_aromatic_ring

>  <prot_clashes>  (30) 
2

>  <NBS phar>  (30) 
0.1

>  <NBS_non-phar>  (30) 
0.5065649032592774

>  <NBS>  (30) 
0.6065649032592774

>  <source_stage>  (30) 
scored

>  <source_iter>  (30) 
2

>  <source_parent_mol>  (30) 
3

>  <source_scenario>  (30) 
0 3

>  <source_rank_in_scored_call>  (30) 
2

>  <source_current_task>  (30) 
close_aromatic_ring

>  <rotatable_bond_torsions>  (30) 
1,0,2,3;0,2,3,4

>  <scenario>  (30) 
0 3

>  <reason_to_skip>  (30) 
incorrect arom ring closing

$$$$

     RDKit          3D

  6  5  0  0  0  0  0  0  0  0999 V2000
  -28.3730   -7.9290  -32.0960 C   0  0  0  0  0  0  0  0  0  0  0  0
  -27.4610   -7.1440  -32.7360 N   0  0  0  0  0  0  0  0  0  0  0  0
  -28.5470   -9.2530  -32.5240 N   0  0  0  0  0  0  0  0  0  0  0  0
  -28.0800  -10.2930  -31.8940 C   0  0  0  0  0  0  0  0  0  0  0  0
  -28.7250  -11.5590  -32.1800 C   0  0  0  0  0  0  0  0  0  0  0  0
  -29.7834  -11.7177  -33.0592 C   0  0  0  0  0  0  0  0  0  0  0  0
  1  2  2  0
  1  3  1  0
  3  4  1  0
  4  5  1  0
  5  6  2  0
M  END
>  <name>  (31) 
Car Nac Nd0 Car Car Car

>  <indices>  (31) 
[0, 1, 2]

>  <dummy>  (31) 
1

>  <tasks>  (31) 
probe_placing close_aromatic_ring close_aromatic_ring

>  <current_task>  (31) 
close_aromatic_ring

>  <prot_clashes>  (31) 
2

>  <NBS phar>  (31) 
0.1

>  <NBS_non-phar>  (31) 
0.5065649032592774

>  <NBS>  (31) 
0.6065649032592774

>  <source_stage>  (31) 
scored

>  <source_iter>  (31) 
2

>  <source_parent_mol>  (31) 
3

>  <source_scenario>  (31) 
0 3

>  <source_rank_in_scored_call>  (31) 
2

>  <source_current_task>  (31) 
close_aromatic_ring

>  <rotatable_bond_torsions>  (31) 
1,0,2,3;0,2,3,4

>  <scenario>  (31) 
0 3

>  <reason_to_skip>  (31) 
subgraph mismatch

$$$$

     RDKit          3D

  6  5  0  0  0  0  0  0  0  0999 V2000
  -28.3730   -7.9290  -32.0960 C   0  0  0  0  0  0  0  0  0  0  0  0
  -27.4610   -7.1440  -32.7360 N   0  0  0  0  0  0  0  0  0  0  0  0
  -28.5470   -9.2530  -32.5240 N   0  0  0  0  0  0  0  0  0  0  0  0
  -28.0800  -10.2930  -31.8940 C   0  0  0  0  0  0  0  0  0  0  0  0
  -28.7250  -11.5590  -32.1800 C   0  0  0  0  0  0  0  0  0  0  0  0
  -29.7636  -11.7860  -33.0313 C   0  0  0  0  0  0  0  0  0  0  0  0
  1  2  2  0
  1  3  1  0
  3  4  1  0
  4  5  1  0
  5  6  1  0
M  END
>  <name>  (32) 
Car Nac Nd0 Car Car Car

>  <indices>  (32) 
[0, 1, 2]

>  <dummy>  (32) 
1

>  <tasks>  (32) 
probe_placing close_aromatic_ring close_aromatic_ring

>  <current_task>  (32) 
close_aromatic_ring

>  <prot_clashes>  (32) 
2

>  <NBS phar>  (32) 
0.1

>  <NBS_non-phar>  (32) 
0.5065649032592774

>  <NBS>  (32) 
0.6065649032592774

>  <source_stage>  (32) 
scored

>  <source_iter>  (32) 
2

>  <source_parent_mol>  (32) 
3

>  <source_scenario>  (32) 
0 3

>  <source_rank_in_scored_call>  (32) 
2

>  <source_current_task>  (32) 
close_aromatic_ring

>  <rotatable_bond_torsions>  (32) 
1,0,2,3;0,2,3,4

>  <scenario>  (32) 
0 3

>  <reason_to_skip>  (32) 
subgraph mismatch

$$$$

     RDKit          3D

  6  5  0  0  0  0  0  0  0  0999 V2000
  -28.3730   -7.9290  -32.0960 C   0  0  0  0  0  0  0  0  0  0  0  0
  -27.4610   -7.1440  -32.7360 N   0  0  0  0  0  0  0  0  0  0  0  0
  -28.5470   -9.2530  -32.5240 N   0  0  0  0  0  0  0  0  0  0  0  0
  -28.0800  -10.2930  -31.8940 C   0  0  0  0  0  0  0  0  0  0  0  0
  -28.7250  -11.5590  -32.1800 C   0  0  0  0  0  0  0  0  0  0  0  0
  -29.7821  -11.6234  -32.9974 N   0  0  0  0  0  0  0  0  0  0  0  0
  1  2  2  0
  1  3  1  0
  3  4  1  0
  4  5  1  0
  5  6  2  0
M  END
>  <name>  (33) 
Car Nac Nd0 Car Car Nac

>  <indices>  (33) 
[0, 1, 2]

>  <dummy>  (33) 
1

>  <tasks>  (33) 
probe_placing close_aromatic_ring close_aromatic_ring

>  <current_task>  (33) 
close_aromatic_ring

>  <prot_clashes>  (33) 
2

>  <NBS phar>  (33) 
0.1

>  <NBS_non-phar>  (33) 
0.5065649032592774

>  <NBS>  (33) 
0.6065649032592774

>  <source_stage>  (33) 
scored

>  <source_iter>  (33) 
2

>  <source_parent_mol>  (33) 
3

>  <source_scenario>  (33) 
0 3

>  <source_rank_in_scored_call>  (33) 
2

>  <source_current_task>  (33) 
close_aromatic_ring

>  <rotatable_bond_torsions>  (33) 
1,0,2,3;0,2,3,4

>  <scenario>  (33) 
0 3

>  <reason_to_skip>  (33) 
subgraph mismatch

$$$$

     RDKit          3D

  6  5  0  0  0  0  0  0  0  0999 V2000
  -28.3730   -7.9290  -32.0960 C   0  0  0  0  0  0  0  0  0  0  0  0
  -27.4610   -7.1440  -32.7360 N   0  0  0  0  0  0  0  0  0  0  0  0
  -28.5470   -9.2530  -32.5240 N   0  0  0  0  0  0  0  0  0  0  0  0
  -28.0800  -10.2930  -31.8940 C   0  0  0  0  0  0  0  0  0  0  0  0
  -28.7250  -11.5590  -32.1800 C   0  0  0  0  0  0  0  0  0  0  0  0
  -29.7443  -11.8367  -32.9985 N   0  0  0  0  0  0  0  0  0  0  0  0
  1  2  2  0
  1  3  1  0
  3  4  1  0
  4  5  1  0
  5  6  1  0
M  END
>  <name>  (34) 
Car Nac Nd0 Car Car Nac

>  <indices>  (34) 
[0, 1, 2]

>  <dummy>  (34) 
1

>  <tasks>  (34) 
probe_placing close_aromatic_ring close_aromatic_ring

>  <current_task>  (34) 
close_aromatic_ring

>  <prot_clashes>  (34) 
2

>  <NBS phar>  (34) 
0.1

>  <NBS_non-phar>  (34) 
0.5065649032592774

>  <NBS>  (34) 
0.6065649032592774

>  <source_stage>  (34) 
scored

>  <source_iter>  (34) 
2

>  <source_parent_mol>  (34) 
3

>  <source_scenario>  (34) 
0 3

>  <source_rank_in_scored_call>  (34) 
2

>  <source_current_task>  (34) 
close_aromatic_ring

>  <rotatable_bond_torsions>  (34) 
1,0,2,3;0,2,3,4

>  <scenario>  (34) 
0 3

>  <reason_to_skip>  (34) 
subgraph mismatch

$$$$

     RDKit          3D

  4  3  0  0  0  0  0  0  0  0999 V2000
  -27.8640   -7.4760  -31.1990 C   0  0  0  0  0  0  0  0  0  0  0  0
  -27.5380   -6.7190  -32.2850 N   0  0  0  0  0  0  0  0  0  0  0  0
  -27.6840   -8.8650  -31.2620 N   0  0  0  0  0  0  0  0  0  0  0  0
  -27.0714   -6.9298  -33.5525 C   0  0  0  0  0  0  0  0  0  0  0  0
  1  2  2  3
  1  3  1  0
  2  4  1  0
M  END
>  <name>  (1) 
Car Nac Nd0 Car

>  <indices>  (1) 
[0, 1, 2]

>  <dummy>  (1) 
2

>  <tasks>  (1) 
probe_placing

>  <reason_to_skip>  (1) 
bad angles

$$$$

     RDKit          3D

  4  3  0  0  0  0  0  0  0  0999 V2000
  -27.8640   -7.4760  -31.1990 C   0  0  0  0  0  0  0  0  0  0  0  0
  -27.5380   -6.7190  -32.2850 N   0  0  0  0  0  0  0  0  0  0  0  0
  -27.6840   -8.8650  -31.2620 N   0  0  0  0  0  0  0  0  0  0  0  0
  -27.7308   -5.5292  -32.0134 N   0  0  0  0  0  0  0  0  0  0  0  0
  1  2  2  3
  1  3  1  0
  2  4  1  0
M  END
>  <name>  (2) 
Car Nac Nd0 Nd0

>  <indices>  (2) 
[0, 1, 2]

>  <dummy>  (2) 
2

>  <tasks>  (2) 
probe_placing

>  <reason_to_skip>  (2) 
pair Nd0 Nac

$$$$

     RDKit          3D

  4  3  0  0  0  0  0  0  0  0999 V2000
  -27.8640   -7.4760  -31.1990 C   0  0  0  0  0  0  0  0  0  0  0  0
  -27.5380   -6.7190  -32.2850 N   0  0  0  0  0  0  0  0  0  0  0  0
  -27.6840   -8.8650  -31.2620 N   0  0  0  0  0  0  0  0  0  0  0  0
  -27.1353   -7.7669  -33.1626 N   0  0  0  0  0  0  0  0  0  0  0  0
  1  2  2  3
  1  3  1  0
  2  4  1  0
M  END
>  <name>  (3) 
Car Nac Nd0 Nac

>  <indices>  (3) 
[0, 1, 2]

>  <dummy>  (3) 
2

>  <tasks>  (3) 
probe_placing

>  <reason_to_skip>  (3) 
bad angles

$$$$

     RDKit          3D

  4  3  0  0  0  0  0  0  0  0999 V2000
  -27.8640   -7.4760  -31.1990 C   0  0  0  0  0  0  0  0  0  0  0  0
  -27.5380   -6.7190  -32.2850 N   0  0  0  0  0  0  0  0  0  0  0  0
  -27.6840   -8.8650  -31.2620 N   0  0  0  0  0  0  0  0  0  0  0  0
    0.0000    0.0000    0.0000 O   0  0  0  0  0  0  0  0  0  0  0  0
  1  2  2  3
  1  3  1  0
  2  4  1  0
M  END
>  <name>  (4) 
Car Nac Nd0 O_a

>  <indices>  (4) 
[0, 1, 2]

>  <dummy>  (4) 
2

>  <tasks>  (4) 
probe_placing

>  <reason_to_skip>  (4) 
some_atom_counter_exceeded

$$$$

     RDKit          3D

  4  3  0  0  0  0  0  0  0  0999 V2000
  -27.8640   -7.4760  -31.1990 C   0  0  0  0  0  0  0  0  0  0  0  0
  -27.5380   -6.7190  -32.2850 N   0  0  0  0  0  0  0  0  0  0  0  0
  -27.6840   -8.8650  -31.2620 N   0  0  0  0  0  0  0  0  0  0  0  0
    0.0000    0.0000    0.0000 O   0  0  0  0  0  0  0  0  0  0  0  0
  1  2  2  3
  1  3  1  0
  2  4  1  0
M  END
>  <name>  (5) 
Car Nac Nd0 O_a

>  <indices>  (5) 
[0, 1, 2]

>  <dummy>  (5) 
2

>  <tasks>  (5) 
probe_placing

>  <reason_to_skip>  (5) 
some_atom_counter_exceeded

$$$$

     RDKit          3D

  4  3  0  0  0  0  0  0  0  0999 V2000
  -27.8640   -7.4760  -31.1990 C   0  0  0  0  0  0  0  0  0  0  0  0
  -27.5380   -6.7190  -32.2850 N   0  0  0  0  0  0  0  0  0  0  0  0
  -27.6840   -8.8650  -31.2620 N   0  0  0  0  0  0  0  0  0  0  0  0
  -27.0386   -7.1677  -33.5018 N   0  0  0  0  0  0  0  0  0  0  0  0
  1  2  2  3
  1  3  1  0
  2  4  1  0
M  END
>  <name>  (6) 
Car Nac Nd0 Nd0

>  <indices>  (6) 
[0, 1, 2]

>  <dummy>  (6) 
2

>  <tasks>  (6) 
probe_placing

>  <reason_to_skip>  (6) 
intramol repulsion

$$$$

     RDKit          3D

  4  3  0  0  0  0  0  0  0  0999 V2000
  -27.8640   -7.4760  -31.1990 C   0  0  0  0  0  0  0  0  0  0  0  0
  -27.5380   -6.7190  -32.2850 N   0  0  0  0  0  0  0  0  0  0  0  0
  -27.6840   -8.8650  -31.2620 N   0  0  0  0  0  0  0  0  0  0  0  0
  -27.1387   -7.7573  -33.1369 N   0  0  0  0  0  0  0  0  0  0  0  0
  1  2  2  3
  1  3  1  0
  2  4  1  0
M  END
>  <name>  (7) 
Car Nac Nd0 Nd0

>  <indices>  (7) 
[0, 1, 2]

>  <dummy>  (7) 
2

>  <tasks>  (7) 
probe_placing

>  <reason_to_skip>  (7) 
bad angles

$$$$

     RDKit          3D

  4  3  0  0  0  0  0  0  0  0999 V2000
  -27.8640   -7.4760  -31.1990 C   0  0  0  0  0  0  0  0  0  0  0  0
  -27.5380   -6.7190  -32.2850 N   0  0  0  0  0  0  0  0  0  0  0  0
  -27.6840   -8.8650  -31.2620 N   0  0  0  0  0  0  0  0  0  0  0  0
  -27.0043   -7.2008  -33.2222 N   0  0  0  0  0  0  0  0  0  0  0  0
  1  2  2  3
  1  3  1  0
  2  4  1  0
M  END
>  <name>  (8) 
Car Nac Nd0 Nd0

>  <indices>  (8) 
[0, 1, 2]

>  <dummy>  (8) 
2

>  <tasks>  (8) 
probe_placing

>  <reason_to_skip>  (8) 
intramol repulsion

$$$$

     RDKit          3D

  4  3  0  0  0  0  0  0  0  0999 V2000
  -27.8640   -7.4760  -31.1990 C   0  0  0  0  0  0  0  0  0  0  0  0
  -27.5380   -6.7190  -32.2850 N   0  0  0  0  0  0  0  0  0  0  0  0
  -27.6840   -8.8650  -31.2620 N   0  0  0  0  0  0  0  0  0  0  0  0
    0.0000    0.0000    0.0000 S   0  0  0  0  0  0  0  0  0  0  0  0
  1  2  2  3
  1  3  1  0
  2  4  1  0
M  END
>  <name>  (9) 
Car Nac Nd0 Sul

>  <indices>  (9) 
[0, 1, 2]

>  <dummy>  (9) 
2

>  <tasks>  (9) 
probe_placing

>  <reason_to_skip>  (9) 
some_atom_counter_exceeded

$$$$

     RDKit          3D

  4  3  0  0  0  0  0  0  0  0999 V2000
  -27.8640   -7.4760  -31.1990 C   0  0  0  0  0  0  0  0  0  0  0  0
  -27.5380   -6.7190  -32.2850 N   0  0  0  0  0  0  0  0  0  0  0  0
  -27.6840   -8.8650  -31.2620 N   0  0  0  0  0  0  0  0  0  0  0  0
  -27.6979   -5.2899  -32.2228 N   0  0  0  0  0  0  0  0  0  0  0  0
  1  2  2  3
  1  3  1  0
  2  4  1  0
M  END
>  <name>  (10) 
Car Nac Nd0 Nd0

>  <indices>  (10) 
[0, 1, 2]

>  <dummy>  (10) 
2

>  <tasks>  (10) 
probe_placing

>  <reason_to_skip>  (10) 
pair Nd0 Nac

$$$$

     RDKit          3D

  4  3  0  0  0  0  0  0  0  0999 V2000
  -27.8640   -7.4760  -31.1990 C   0  0  0  0  0  0  0  0  0  0  0  0
  -27.5380   -6.7190  -32.2850 N   0  0  0  0  0  0  0  0  0  0  0  0
  -27.6840   -8.8650  -31.2620 N   0  0  0  0  0  0  0  0  0  0  0  0
  -27.0542   -7.7838  -33.0922 N   0  0  0  0  0  0  0  0  0  0  0  0
  1  2  2  3
  1  3  1  0
  2  4  1  0
M  END
>  <name>  (11) 
Car Nac Nd0 Nac

>  <indices>  (11) 
[0, 1, 2]

>  <dummy>  (11) 
2

>  <tasks>  (11) 
probe_placing

>  <reason_to_skip>  (11) 
bad angles

$$$$

     RDKit          3D

  4  3  0  0  0  0  0  0  0  0999 V2000
  -27.8640   -7.4760  -31.1990 C   0  0  0  0  0  0  0  0  0  0  0  0
  -27.5380   -6.7190  -32.2850 N   0  0  0  0  0  0  0  0  0  0  0  0
  -27.6840   -8.8650  -31.2620 N   0  0  0  0  0  0  0  0  0  0  0  0
  -27.7107   -5.3862  -32.2394 N   0  0  0  0  0  0  0  0  0  0  0  0
  1  2  2  3
  1  3  1  0
  2  4  1  0
M  END
>  <name>  (12) 
Car Nac Nd0 Nac

>  <indices>  (12) 
[0, 1, 2]

>  <dummy>  (12) 
2

>  <tasks>  (12) 
probe_placing

>  <current_task>  (12) 
close_aromatic_ring

>  <reason_to_skip>  (12) 
subgraph mismatch

$$$$

     RDKit          3D

  4  3  0  0  0  0  0  0  0  0999 V2000
  -27.8640   -7.4760  -31.1990 C   0  0  0  0  0  0  0  0  0  0  0  0
  -27.5380   -6.7190  -32.2850 N   0  0  0  0  0  0  0  0  0  0  0  0
  -27.6840   -8.8650  -31.2620 N   0  0  0  0  0  0  0  0  0  0  0  0
  -27.8398   -5.4612  -32.0239 N   0  0  0  0  0  0  0  0  0  0  0  0
  1  2  2  3
  1  3  1  0
  2  4  1  0
M  END
>  <name>  (13) 
Car Nac Nd0 Nac

>  <indices>  (13) 
[0, 1, 2]

>  <dummy>  (13) 
2

>  <tasks>  (13) 
probe_placing

>  <current_task>  (13) 
close_aromatic_ring

>  <reason_to_skip>  (13) 
subgraph mismatch

$$$$

     RDKit          3D

  4  3  0  0  0  0  0  0  0  0999 V2000
  -27.8640   -7.4760  -31.1990 C   0  0  0  0  0  0  0  0  0  0  0  0
  -27.5380   -6.7190  -32.2850 N   0  0  0  0  0  0  0  0  0  0  0  0
  -27.6840   -8.8650  -31.2620 N   0  0  0  0  0  0  0  0  0  0  0  0
  -27.0278   -7.0142  -33.5566 N   0  0  0  0  0  0  0  0  0  0  0  0
  1  2  2  3
  1  3  1  0
  2  4  1  0
M  END
>  <name>  (14) 
Car Nac Nd0 Nac

>  <indices>  (14) 
[0, 1, 2]

>  <dummy>  (14) 
2

>  <tasks>  (14) 
probe_placing

>  <current_task>  (14) 
close_aromatic_ring

>  <reason_to_skip>  (14) 
subgraph mismatch

$$$$

     RDKit          3D

  4  3  0  0  0  0  0  0  0  0999 V2000
  -27.8680   -7.1040  -31.0960 C   0  0  0  0  0  0  0  0  0  0  0  0
  -28.0820   -5.7580  -31.1360 N   0  0  0  0  0  0  0  0  0  0  0  0
  -27.6970   -7.7990  -32.3020 N   0  0  0  0  0  0  0  0  0  0  0  0
  -28.0080   -5.5390  -32.5080 C   0  0  0  0  0  0  0  0  0  0  0  0
  1  3  1  0
  1  2  2  3
  2  4  1  0
M  END
>  <name>  (15) 
Car Nac Nd0 Car

>  <indices>  (15) 
[0, 1, 2]

>  <dummy>  (15) 
2

>  <tasks>  (15) 
probe_placing

>  <current_task>  (15) 
close_aromatic_ring

>  <reason_to_skip>  (15) 
missing crucial interaction

$$$$

     RDKit          3D

  4  3  0  0  0  0  0  0  0  0999 V2000
  -27.0440   -7.4300  -31.2490 C   0  0  0  0  0  0  0  0  0  0  0  0
  -26.9110   -7.8830  -29.9700 N   0  0  0  0  0  0  0  0  0  0  0  0
  -27.8690   -8.1360  -32.1360 N   0  0  0  0  0  0  0  0  0  0  0  0
  -27.4340   -8.9820  -29.2500 C   0  0  0  0  0  0  0  0  0  0  0  0
  1  3  1  0
  1  2  2  3
  2  4  1  0
M  END
>  <name>  (16) 
Car Nac Nd0 Car

>  <indices>  (16) 
[0, 1, 2]

>  <dummy>  (16) 
2

>  <tasks>  (16) 
probe_placing

>  <current_task>  (16) 
close_aromatic_ring

>  <reason_to_skip>  (16) 
missing crucial interaction

$$$$

     RDKit          3D

  5  4  0  0  0  0  0  0  0  0999 V2000
  -27.8640   -7.4760  -31.1990 C   0  0  0  0  0  0  0  0  0  0  0  0
  -27.5380   -6.7190  -32.2850 N   0  0  0  0  0  0  0  0  0  0  0  0
  -27.6840   -8.8650  -31.2620 N   0  0  0  0  0  0  0  0  0  0  0  0
  -27.8024   -5.3830  -31.8813 C   0  0  0  0  0  0  0  0  0  0  0  0
  -26.6988   -4.5090  -31.9057 C   0  0  0  0  0  0  0  0  0  0  0  0
  1  2  2  3
  1  3  1  0
  2  4  1  0
  4  5  2  0
M  END
>  <name>  (1) 
Car Nac Nd0 Car Car

>  <indices>  (1) 
[0, 1, 2]

>  <dummy>  (1) 
2

>  <tasks>  (1) 
probe_placing close_aromatic_ring

>  <current_task>  (1) 
close_aromatic_ring

>  <prot_clashes>  (1) 
1

>  <NBS phar>  (1) 
0.2

>  <NBS_non-phar>  (1) 
0.9189163446426392

>  <NBS>  (1) 
1.1189163446426391

>  <source_stage>  (1) 
scored

>  <source_iter>  (1) 
1

>  <source_parent_mol>  (1) 
1

>  <source_scenario>  (1) 
1

>  <source_rank_in_scored_call>  (1) 
0

>  <source_current_task>  (1) 
close_aromatic_ring

>  <scenario>  (1) 
1

>  <reason_to_skip>  (1) 
Car-Nac-DB dihedral

$$$$

     RDKit          3D

  5  4  0  0  0  0  0  0  0  0999 V2000
  -27.8640   -7.4760  -31.1990 C   0  0  0  0  0  0  0  0  0  0  0  0
  -27.5380   -6.7190  -32.2850 N   0  0  0  0  0  0  0  0  0  0  0  0
  -27.6840   -8.8650  -31.2620 N   0  0  0  0  0  0  0  0  0  0  0  0
  -27.8024   -5.3830  -31.8813 C   0  0  0  0  0  0  0  0  0  0  0  0
  -29.0699   -4.9016  -31.7209 C   0  0  0  0  0  0  0  0  0  0  0  0
  1  2  2  3
  1  3  1  0
  2  4  1  0
  4  5  1  0
M  END
>  <name>  (2) 
Car Nac Nd0 Car Car

>  <indices>  (2) 
[0, 1, 2]

>  <dummy>  (2) 
2

>  <tasks>  (2) 
probe_placing close_aromatic_ring

>  <current_task>  (2) 
close_aromatic_ring

>  <prot_clashes>  (2) 
1

>  <NBS phar>  (2) 
0.2

>  <NBS_non-phar>  (2) 
0.9189163446426392

>  <NBS>  (2) 
1.1189163446426391

>  <source_stage>  (2) 
scored

>  <source_iter>  (2) 
1

>  <source_parent_mol>  (2) 
1

>  <source_scenario>  (2) 
1

>  <source_rank_in_scored_call>  (2) 
0

>  <source_current_task>  (2) 
close_aromatic_ring

>  <scenario>  (2) 
1

>  <reason_to_skip>  (2) 
Car-Nac-DB dihedral

$$$$

     RDKit          3D

  5  4  0  0  0  0  0  0  0  0999 V2000
  -27.8640   -7.4760  -31.1990 C   0  0  0  0  0  0  0  0  0  0  0  0
  -27.5380   -6.7190  -32.2850 N   0  0  0  0  0  0  0  0  0  0  0  0
  -27.6840   -8.8650  -31.2620 N   0  0  0  0  0  0  0  0  0  0  0  0
  -27.8024   -5.3830  -31.8813 C   0  0  0  0  0  0  0  0  0  0  0  0
  -28.1934   -4.6109  -30.8740 N   0  0  0  0  0  0  0  0  0  0  0  0
  1  2  2  3
  1  3  1  0
  2  4  1  0
  4  5  1  0
M  END
>  <name>  (3) 
Car Nac Nd0 Car Nd0

>  <indices>  (3) 
[0, 1, 2]

>  <dummy>  (3) 
2

>  <tasks>  (3) 
probe_placing close_aromatic_ring

>  <current_task>  (3) 
close_aromatic_ring

>  <prot_clashes>  (3) 
1

>  <NBS phar>  (3) 
0.2

>  <NBS_non-phar>  (3) 
0.9189163446426392

>  <NBS>  (3) 
1.1189163446426391

>  <source_stage>  (3) 
scored

>  <source_iter>  (3) 
1

>  <source_parent_mol>  (3) 
1

>  <source_scenario>  (3) 
1

>  <source_rank_in_scored_call>  (3) 
0

>  <source_current_task>  (3) 
close_aromatic_ring

>  <scenario>  (3) 
1

>  <reason_to_skip>  (3) 
bad angles

$$$$

     RDKit          3D

  5  4  0  0  0  0  0  0  0  0999 V2000
  -27.8640   -7.4760  -31.1990 C   0  0  0  0  0  0  0  0  0  0  0  0
  -27.5380   -6.7190  -32.2850 N   0  0  0  0  0  0  0  0  0  0  0  0
  -27.6840   -8.8650  -31.2620 N   0  0  0  0  0  0  0  0  0  0  0  0
  -27.8024   -5.3830  -31.8813 C   0  0  0  0  0  0  0  0  0  0  0  0
  -28.1963   -4.6534  -30.9069 N   0  0  0  0  0  0  0  0  0  0  0  0
  1  2  2  3
  1  3  1  0
  2  4  1  0
  4  5  1  0
M  END
>  <name>  (4) 
Car Nac Nd0 Car Nac

>  <indices>  (4) 
[0, 1, 2]

>  <dummy>  (4) 
2

>  <tasks>  (4) 
probe_placing close_aromatic_ring

>  <current_task>  (4) 
close_aromatic_ring

>  <prot_clashes>  (4) 
1

>  <NBS phar>  (4) 
0.2

>  <NBS_non-phar>  (4) 
0.9189163446426392

>  <NBS>  (4) 
1.1189163446426391

>  <source_stage>  (4) 
scored

>  <source_iter>  (4) 
1

>  <source_parent_mol>  (4) 
1

>  <source_scenario>  (4) 
1

>  <source_rank_in_scored_call>  (4) 
0

>  <source_current_task>  (4) 
close_aromatic_ring

>  <scenario>  (4) 
1

>  <reason_to_skip>  (4) 
bad angles

$$$$

     RDKit          3D

  5  4  0  0  0  0  0  0  0  0999 V2000
  -27.8640   -7.4760  -31.1990 C   0  0  0  0  0  0  0  0  0  0  0  0
  -27.5380   -6.7190  -32.2850 N   0  0  0  0  0  0  0  0  0  0  0  0
  -27.6840   -8.8650  -31.2620 N   0  0  0  0  0  0  0  0  0  0  0  0
  -27.8024   -5.3830  -31.8813 C   0  0  0  0  0  0  0  0  0  0  0  0
    0.0000    0.0000    0.0000 S   0  0  0  0  0  0  0  0  0  0  0  0
  1  2  2  3
  1  3  1  0
  2  4  1  0
  4  5  1  0
M  END
>  <name>  (5) 
Car Nac Nd0 Car Sul

>  <indices>  (5) 
[0, 1, 2]

>  <dummy>  (5) 
2

>  <tasks>  (5) 
probe_placing close_aromatic_ring

>  <current_task>  (5) 
close_aromatic_ring

>  <prot_clashes>  (5) 
1

>  <NBS phar>  (5) 
0.2

>  <NBS_non-phar>  (5) 
0.9189163446426392

>  <NBS>  (5) 
1.1189163446426391

>  <source_stage>  (5) 
scored

>  <source_iter>  (5) 
1

>  <source_parent_mol>  (5) 
1

>  <source_scenario>  (5) 
1

>  <source_rank_in_scored_call>  (5) 
0

>  <source_current_task>  (5) 
close_aromatic_ring

>  <scenario>  (5) 
1

>  <reason_to_skip>  (5) 
some_atom_counter_exceeded

$$$$

     RDKit          3D

  5  4  0  0  0  0  0  0  0  0999 V2000
  -27.8640   -7.4760  -31.1990 C   0  0  0  0  0  0  0  0  0  0  0  0
  -27.5380   -6.7190  -32.2850 N   0  0  0  0  0  0  0  0  0  0  0  0
  -27.6840   -8.8650  -31.2620 N   0  0  0  0  0  0  0  0  0  0  0  0
  -27.8024   -5.3830  -31.8813 C   0  0  0  0  0  0  0  0  0  0  0  0
  -27.2966   -4.6335  -30.8373 C   0  0  0  0  0  0  0  0  0  0  0  0
  1  2  2  3
  1  3  1  0
  2  4  1  0
  4  5  1  0
M  END
>  <name>  (6) 
Car Nac Nd0 Car Car

>  <indices>  (6) 
[0, 1, 2]

>  <dummy>  (6) 
2

>  <tasks>  (6) 
probe_placing close_aromatic_ring

>  <current_task>  (6) 
close_aromatic_ring

>  <prot_clashes>  (6) 
1

>  <NBS phar>  (6) 
0.2

>  <NBS_non-phar>  (6) 
0.9189163446426392

>  <NBS>  (6) 
1.1189163446426391

>  <source_stage>  (6) 
scored

>  <source_iter>  (6) 
1

>  <source_parent_mol>  (6) 
1

>  <source_scenario>  (6) 
1

>  <source_rank_in_scored_call>  (6) 
0

>  <source_current_task>  (6) 
close_aromatic_ring

>  <scenario>  (6) 
1

>  <reason_to_skip>  (6) 
Car-Nac-DB dihedral

$$$$

     RDKit          3D

  5  4  0  0  0  0  0  0  0  0999 V2000
  -27.8640   -7.4760  -31.1990 C   0  0  0  0  0  0  0  0  0  0  0  0
  -27.5380   -6.7190  -32.2850 N   0  0  0  0  0  0  0  0  0  0  0  0
  -27.6840   -8.8650  -31.2620 N   0  0  0  0  0  0  0  0  0  0  0  0
  -27.8024   -5.3830  -31.8813 C   0  0  0  0  0  0  0  0  0  0  0  0
  -28.9212   -4.6581  -32.4556 C   0  0  0  0  0  0  0  0  0  0  0  0
  1  2  2  3
  1  3  1  0
  2  4  1  0
  4  5  2  0
M  END
>  <name>  (7) 
Car Nac Nd0 Car Car

>  <indices>  (7) 
[0, 1, 2]

>  <dummy>  (7) 
2

>  <tasks>  (7) 
probe_placing close_aromatic_ring

>  <current_task>  (7) 
close_aromatic_ring

>  <prot_clashes>  (7) 
1

>  <NBS phar>  (7) 
0.2

>  <NBS_non-phar>  (7) 
0.9189163446426392

>  <NBS>  (7) 
1.1189163446426391

>  <source_stage>  (7) 
scored

>  <source_iter>  (7) 
1

>  <source_parent_mol>  (7) 
1

>  <source_scenario>  (7) 
1

>  <source_rank_in_scored_call>  (7) 
0

>  <source_current_task>  (7) 
close_aromatic_ring

>  <scenario>  (7) 
1

>  <reason_to_skip>  (7) 
Car-Nac-DB dihedral

$$$$

     RDKit          3D

  5  4  0  0  0  0  0  0  0  0999 V2000
  -27.8640   -7.4760  -31.1990 C   0  0  0  0  0  0  0  0  0  0  0  0
  -27.5380   -6.7190  -32.2850 N   0  0  0  0  0  0  0  0  0  0  0  0
  -27.6840   -8.8650  -31.2620 N   0  0  0  0  0  0  0  0  0  0  0  0
  -27.8024   -5.3830  -31.8813 C   0  0  0  0  0  0  0  0  0  0  0  0
  -28.7005   -4.6773  -32.7084 N   0  0  0  0  0  0  0  0  0  0  0  0
  1  2  2  3
  1  3  1  0
  2  4  1  0
  4  5  1  0
M  END
>  <name>  (8) 
Car Nac Nd0 Car Nac

>  <indices>  (8) 
[0, 1, 2]

>  <dummy>  (8) 
2

>  <tasks>  (8) 
probe_placing close_aromatic_ring

>  <current_task>  (8) 
close_aromatic_ring

>  <prot_clashes>  (8) 
1

>  <NBS phar>  (8) 
0.2

>  <NBS_non-phar>  (8) 
0.9189163446426392

>  <NBS>  (8) 
1.1189163446426391

>  <source_stage>  (8) 
scored

>  <source_iter>  (8) 
1

>  <source_parent_mol>  (8) 
1

>  <source_scenario>  (8) 
1

>  <source_rank_in_scored_call>  (8) 
0

>  <source_current_task>  (8) 
close_aromatic_ring

>  <scenario>  (8) 
1

>  <reason_to_skip>  (8) 
Car-Nac-DB dihedral

$$$$

     RDKit          3D

  5  4  0  0  0  0  0  0  0  0999 V2000
  -27.8640   -7.4760  -31.1990 C   0  0  0  0  0  0  0  0  0  0  0  0
  -27.5380   -6.7190  -32.2850 N   0  0  0  0  0  0  0  0  0  0  0  0
  -27.6840   -8.8650  -31.2620 N   0  0  0  0  0  0  0  0  0  0  0  0
  -27.8024   -5.3830  -31.8813 C   0  0  0  0  0  0  0  0  0  0  0  0
    0.0000    0.0000    0.0000 S   0  0  0  0  0  0  0  0  0  0  0  0
  1  2  2  3
  1  3  1  0
  2  4  1  0
  4  5  1  0
M  END
>  <name>  (9) 
Car Nac Nd0 Car Sul

>  <indices>  (9) 
[0, 1, 2]

>  <dummy>  (9) 
2

>  <tasks>  (9) 
probe_placing close_aromatic_ring

>  <current_task>  (9) 
close_aromatic_ring

>  <prot_clashes>  (9) 
1

>  <NBS phar>  (9) 
0.2

>  <NBS_non-phar>  (9) 
0.9189163446426392

>  <NBS>  (9) 
1.1189163446426391

>  <source_stage>  (9) 
scored

>  <source_iter>  (9) 
1

>  <source_parent_mol>  (9) 
1

>  <source_scenario>  (9) 
1

>  <source_rank_in_scored_call>  (9) 
0

>  <source_current_task>  (9) 
close_aromatic_ring

>  <scenario>  (9) 
1

>  <reason_to_skip>  (9) 
some_atom_counter_exceeded

$$$$

     RDKit          3D

  5  4  0  0  0  0  0  0  0  0999 V2000
  -27.8640   -7.4760  -31.1990 C   0  0  0  0  0  0  0  0  0  0  0  0
  -27.5380   -6.7190  -32.2850 N   0  0  0  0  0  0  0  0  0  0  0  0
  -27.6840   -8.8650  -31.2620 N   0  0  0  0  0  0  0  0  0  0  0  0
  -27.8024   -5.3830  -31.8813 C   0  0  0  0  0  0  0  0  0  0  0  0
    0.0000    0.0000    0.0000 S   0  0  0  0  0  0  0  0  0  0  0  0
  1  2  2  3
  1  3  1  0
  2  4  1  0
  4  5  1  0
M  END
>  <name>  (10) 
Car Nac Nd0 Car Sul

>  <indices>  (10) 
[0, 1, 2]

>  <dummy>  (10) 
2

>  <tasks>  (10) 
probe_placing close_aromatic_ring

>  <current_task>  (10) 
close_aromatic_ring

>  <prot_clashes>  (10) 
1

>  <NBS phar>  (10) 
0.2

>  <NBS_non-phar>  (10) 
0.9189163446426392

>  <NBS>  (10) 
1.1189163446426391

>  <source_stage>  (10) 
scored

>  <source_iter>  (10) 
1

>  <source_parent_mol>  (10) 
1

>  <source_scenario>  (10) 
1

>  <source_rank_in_scored_call>  (10) 
0

>  <source_current_task>  (10) 
close_aromatic_ring

>  <scenario>  (10) 
1

>  <reason_to_skip>  (10) 
some_atom_counter_exceeded

$$$$

     RDKit          3D

  5  4  0  0  0  0  0  0  0  0999 V2000
  -27.8640   -7.4760  -31.1990 C   0  0  0  0  0  0  0  0  0  0  0  0
  -27.5380   -6.7190  -32.2850 N   0  0  0  0  0  0  0  0  0  0  0  0
  -27.6840   -8.8650  -31.2620 N   0  0  0  0  0  0  0  0  0  0  0  0
  -27.8024   -5.3830  -31.8813 C   0  0  0  0  0  0  0  0  0  0  0  0
    0.0000    0.0000    0.0000 O   0  0  0  0  0  0  0  0  0  0  0  0
  1  2  2  3
  1  3  1  0
  2  4  1  0
  4  5  1  0
M  END
>  <name>  (11) 
Car Nac Nd0 Car O_a

>  <indices>  (11) 
[0, 1, 2]

>  <dummy>  (11) 
2

>  <tasks>  (11) 
probe_placing close_aromatic_ring

>  <current_task>  (11) 
close_aromatic_ring

>  <prot_clashes>  (11) 
1

>  <NBS phar>  (11) 
0.2

>  <NBS_non-phar>  (11) 
0.9189163446426392

>  <NBS>  (11) 
1.1189163446426391

>  <source_stage>  (11) 
scored

>  <source_iter>  (11) 
1

>  <source_parent_mol>  (11) 
1

>  <source_scenario>  (11) 
1

>  <source_rank_in_scored_call>  (11) 
0

>  <source_current_task>  (11) 
close_aromatic_ring

>  <scenario>  (11) 
1

>  <reason_to_skip>  (11) 
some_atom_counter_exceeded

$$$$

     RDKit          3D

  5  4  0  0  0  0  0  0  0  0999 V2000
  -27.8640   -7.4760  -31.1990 C   0  0  0  0  0  0  0  0  0  0  0  0
  -27.5380   -6.7190  -32.2850 N   0  0  0  0  0  0  0  0  0  0  0  0
  -27.6840   -8.8650  -31.2620 N   0  0  0  0  0  0  0  0  0  0  0  0
  -27.8024   -5.3830  -31.8813 C   0  0  0  0  0  0  0  0  0  0  0  0
    0.0000    0.0000    0.0000 S   0  0  0  0  0  0  0  0  0  0  0  0
  1  2  2  3
  1  3  1  0
  2  4  1  0
  4  5  1  0
M  END
>  <name>  (12) 
Car Nac Nd0 Car Sul

>  <indices>  (12) 
[0, 1, 2]

>  <dummy>  (12) 
2

>  <tasks>  (12) 
probe_placing close_aromatic_ring

>  <current_task>  (12) 
close_aromatic_ring

>  <prot_clashes>  (12) 
1

>  <NBS phar>  (12) 
0.2

>  <NBS_non-phar>  (12) 
0.9189163446426392

>  <NBS>  (12) 
1.1189163446426391

>  <source_stage>  (12) 
scored

>  <source_iter>  (12) 
1

>  <source_parent_mol>  (12) 
1

>  <source_scenario>  (12) 
1

>  <source_rank_in_scored_call>  (12) 
0

>  <source_current_task>  (12) 
close_aromatic_ring

>  <scenario>  (12) 
1

>  <reason_to_skip>  (12) 
some_atom_counter_exceeded

$$$$

     RDKit          3D

  5  4  0  0  0  0  0  0  0  0999 V2000
  -27.8640   -7.4760  -31.1990 C   0  0  0  0  0  0  0  0  0  0  0  0
  -27.5380   -6.7190  -32.2850 N   0  0  0  0  0  0  0  0  0  0  0  0
  -27.6840   -8.8650  -31.2620 N   0  0  0  0  0  0  0  0  0  0  0  0
  -27.8024   -5.3830  -31.8813 C   0  0  0  0  0  0  0  0  0  0  0  0
    0.0000    0.0000    0.0000 O   0  0  0  0  0  0  0  0  0  0  0  0
  1  2  2  3
  1  3  1  0
  2  4  1  0
  4  5  1  0
M  END
>  <name>  (13) 
Car Nac Nd0 Car O_a

>  <indices>  (13) 
[0, 1, 2]

>  <dummy>  (13) 
2

>  <tasks>  (13) 
probe_placing close_aromatic_ring

>  <current_task>  (13) 
close_aromatic_ring

>  <prot_clashes>  (13) 
1

>  <NBS phar>  (13) 
0.2

>  <NBS_non-phar>  (13) 
0.9189163446426392

>  <NBS>  (13) 
1.1189163446426391

>  <source_stage>  (13) 
scored

>  <source_iter>  (13) 
1

>  <source_parent_mol>  (13) 
1

>  <source_scenario>  (13) 
1

>  <source_rank_in_scored_call>  (13) 
0

>  <source_current_task>  (13) 
close_aromatic_ring

>  <scenario>  (13) 
1

>  <reason_to_skip>  (13) 
some_atom_counter_exceeded

$$$$

     RDKit          3D

  5  4  0  0  0  0  0  0  0  0999 V2000
  -27.8640   -7.4760  -31.1990 C   0  0  0  0  0  0  0  0  0  0  0  0
  -27.5380   -6.7190  -32.2850 N   0  0  0  0  0  0  0  0  0  0  0  0
  -27.6840   -8.8650  -31.2620 N   0  0  0  0  0  0  0  0  0  0  0  0
  -27.8024   -5.3830  -31.8813 C   0  0  0  0  0  0  0  0  0  0  0  0
  -28.7210   -4.6067  -32.6614 N   0  0  0  0  0  0  0  0  0  0  0  0
  1  2  2  3
  1  3  1  0
  2  4  1  0
  4  5  1  0
M  END
>  <name>  (14) 
Car Nac Nd0 Car Nd0

>  <indices>  (14) 
[0, 1, 2]

>  <dummy>  (14) 
2

>  <tasks>  (14) 
probe_placing close_aromatic_ring

>  <current_task>  (14) 
close_aromatic_ring

>  <prot_clashes>  (14) 
1

>  <NBS phar>  (14) 
0.2

>  <NBS_non-phar>  (14) 
0.9189163446426392

>  <NBS>  (14) 
1.1189163446426391

>  <source_stage>  (14) 
scored

>  <source_iter>  (14) 
1

>  <source_parent_mol>  (14) 
1

>  <source_scenario>  (14) 
1

>  <source_rank_in_scored_call>  (14) 
0

>  <source_current_task>  (14) 
close_aromatic_ring

>  <scenario>  (14) 
1

>  <reason_to_skip>  (14) 
Car-Nac-DB dihedral

$$$$

     RDKit          3D

  5  4  0  0  0  0  0  0  0  0999 V2000
  -27.8640   -7.4760  -31.1990 C   0  0  0  0  0  0  0  0  0  0  0  0
  -27.5380   -6.7190  -32.2850 N   0  0  0  0  0  0  0  0  0  0  0  0
  -27.6840   -8.8650  -31.2620 N   0  0  0  0  0  0  0  0  0  0  0  0
  -27.8024   -5.3830  -31.8813 C   0  0  0  0  0  0  0  0  0  0  0  0
    0.0000    0.0000    0.0000 S   0  0  0  0  0  0  0  0  0  0  0  0
  1  2  2  3
  1  3  1  0
  2  4  1  0
  4  5  1  0
M  END
>  <name>  (15) 
Car Nac Nd0 Car Sul

>  <indices>  (15) 
[0, 1, 2]

>  <dummy>  (15) 
2

>  <tasks>  (15) 
probe_placing close_aromatic_ring

>  <current_task>  (15) 
close_aromatic_ring

>  <prot_clashes>  (15) 
1

>  <NBS phar>  (15) 
0.2

>  <NBS_non-phar>  (15) 
0.9189163446426392

>  <NBS>  (15) 
1.1189163446426391

>  <source_stage>  (15) 
scored

>  <source_iter>  (15) 
1

>  <source_parent_mol>  (15) 
1

>  <source_scenario>  (15) 
1

>  <source_rank_in_scored_call>  (15) 
0

>  <source_current_task>  (15) 
close_aromatic_ring

>  <scenario>  (15) 
1

>  <reason_to_skip>  (15) 
some_atom_counter_exceeded

$$$$

     RDKit          3D

  5  4  0  0  0  0  0  0  0  0999 V2000
  -27.8640   -7.4760  -31.1990 C   0  0  0  0  0  0  0  0  0  0  0  0
  -27.5380   -6.7190  -32.2850 N   0  0  0  0  0  0  0  0  0  0  0  0
  -27.6840   -8.8650  -31.2620 N   0  0  0  0  0  0  0  0  0  0  0  0
  -27.8024   -5.3830  -31.8813 C   0  0  0  0  0  0  0  0  0  0  0  0
    0.0000    0.0000    0.0000 O   0  0  0  0  0  0  0  0  0  0  0  0
  1  2  2  3
  1  3  1  0
  2  4  1  0
  4  5  1  0
M  END
>  <name>  (16) 
Car Nac Nd0 Car O_a

>  <indices>  (16) 
[0, 1, 2]

>  <dummy>  (16) 
2

>  <tasks>  (16) 
probe_placing close_aromatic_ring

>  <current_task>  (16) 
close_aromatic_ring

>  <prot_clashes>  (16) 
1

>  <NBS phar>  (16) 
0.2

>  <NBS_non-phar>  (16) 
0.9189163446426392

>  <NBS>  (16) 
1.1189163446426391

>  <source_stage>  (16) 
scored

>  <source_iter>  (16) 
1

>  <source_parent_mol>  (16) 
1

>  <source_scenario>  (16) 
1

>  <source_rank_in_scored_call>  (16) 
0

>  <source_current_task>  (16) 
close_aromatic_ring

>  <scenario>  (16) 
1

>  <reason_to_skip>  (16) 
some_atom_counter_exceeded

$$$$

     RDKit          3D

  5  4  0  0  0  0  0  0  0  0999 V2000
  -27.8640   -7.4760  -31.1990 C   0  0  0  0  0  0  0  0  0  0  0  0
  -27.5380   -6.7190  -32.2850 N   0  0  0  0  0  0  0  0  0  0  0  0
  -27.6840   -8.8650  -31.2620 N   0  0  0  0  0  0  0  0  0  0  0  0
  -27.8024   -5.3830  -31.8813 C   0  0  0  0  0  0  0  0  0  0  0  0
  -26.6808   -4.4112  -32.0263 N   0  0  0  0  0  0  0  0  0  0  0  0
  1  2  2  3
  1  3  1  0
  2  4  1  0
  4  5  1  0
M  END
>  <name>  (17) 
Car Nac Nd0 Car Nac

>  <indices>  (17) 
[0, 1, 2]

>  <dummy>  (17) 
2

>  <tasks>  (17) 
probe_placing close_aromatic_ring

>  <current_task>  (17) 
close_aromatic_ring

>  <prot_clashes>  (17) 
1

>  <NBS phar>  (17) 
0.2

>  <NBS_non-phar>  (17) 
0.9189163446426392

>  <NBS>  (17) 
1.1189163446426391

>  <source_stage>  (17) 
scored

>  <source_iter>  (17) 
1

>  <source_parent_mol>  (17) 
1

>  <source_scenario>  (17) 
1

>  <source_rank_in_scored_call>  (17) 
0

>  <source_current_task>  (17) 
close_aromatic_ring

>  <scenario>  (17) 
1

>  <reason_to_skip>  (17) 
Car-Nac-DB dihedral

$$$$

     RDKit          3D

  5  4  0  0  0  0  0  0  0  0999 V2000
  -27.8640   -7.4760  -31.1990 C   0  0  0  0  0  0  0  0  0  0  0  0
  -27.5380   -6.7190  -32.2850 N   0  0  0  0  0  0  0  0  0  0  0  0
  -27.6840   -8.8650  -31.2620 N   0  0  0  0  0  0  0  0  0  0  0  0
  -27.8024   -5.3830  -31.8813 C   0  0  0  0  0  0  0  0  0  0  0  0
  -28.5966   -4.6128  -32.9062 C   0  0  0  0  0  0  0  0  0  0  0  0
  1  2  2  3
  1  3  1  0
  2  4  1  0
  4  5  1  0
M  END
>  <name>  (18) 
Car Nac Nd0 Car Car

>  <indices>  (18) 
[0, 1, 2]

>  <dummy>  (18) 
2

>  <tasks>  (18) 
probe_placing close_aromatic_ring

>  <current_task>  (18) 
close_aromatic_ring

>  <prot_clashes>  (18) 
1

>  <NBS phar>  (18) 
0.2

>  <NBS_non-phar>  (18) 
0.9189163446426392

>  <NBS>  (18) 
1.1189163446426391

>  <source_stage>  (18) 
scored

>  <source_iter>  (18) 
1

>  <source_parent_mol>  (18) 
1

>  <source_scenario>  (18) 
1

>  <source_rank_in_scored_call>  (18) 
0

>  <source_current_task>  (18) 
close_aromatic_ring

>  <scenario>  (18) 
1

>  <reason_to_skip>  (18) 
Car-Nac-DB dihedral

$$$$

     RDKit          3D

  5  4  0  0  0  0  0  0  0  0999 V2000
  -27.8640   -7.4760  -31.1990 C   0  0  0  0  0  0  0  0  0  0  0  0
  -27.5380   -6.7190  -32.2850 N   0  0  0  0  0  0  0  0  0  0  0  0
  -27.6840   -8.8650  -31.2620 N   0  0  0  0  0  0  0  0  0  0  0  0
  -27.8024   -5.3830  -31.8813 C   0  0  0  0  0  0  0  0  0  0  0  0
    0.0000    0.0000    0.0000 S   0  0  0  0  0  0  0  0  0  0  0  0
  1  2  2  3
  1  3  1  0
  2  4  1  0
  4  5  1  0
M  END
>  <name>  (19) 
Car Nac Nd0 Car Sul

>  <indices>  (19) 
[0, 1, 2]

>  <dummy>  (19) 
2

>  <tasks>  (19) 
probe_placing close_aromatic_ring

>  <current_task>  (19) 
close_aromatic_ring

>  <prot_clashes>  (19) 
1

>  <NBS phar>  (19) 
0.2

>  <NBS_non-phar>  (19) 
0.9189163446426392

>  <NBS>  (19) 
1.1189163446426391

>  <source_stage>  (19) 
scored

>  <source_iter>  (19) 
1

>  <source_parent_mol>  (19) 
1

>  <source_scenario>  (19) 
1

>  <source_rank_in_scored_call>  (19) 
0

>  <source_current_task>  (19) 
close_aromatic_ring

>  <scenario>  (19) 
1

>  <reason_to_skip>  (19) 
some_atom_counter_exceeded

$$$$

     RDKit          3D

  5  4  0  0  0  0  0  0  0  0999 V2000
  -27.8640   -7.4760  -31.1990 C   0  0  0  0  0  0  0  0  0  0  0  0
  -27.5380   -6.7190  -32.2850 N   0  0  0  0  0  0  0  0  0  0  0  0
  -27.6840   -8.8650  -31.2620 N   0  0  0  0  0  0  0  0  0  0  0  0
  -27.8024   -5.3830  -31.8813 C   0  0  0  0  0  0  0  0  0  0  0  0
    0.0000    0.0000    0.0000 O   0  0  0  0  0  0  0  0  0  0  0  0
  1  2  2  3
  1  3  1  0
  2  4  1  0
  4  5  1  0
M  END
>  <name>  (20) 
Car Nac Nd0 Car O_a

>  <indices>  (20) 
[0, 1, 2]

>  <dummy>  (20) 
2

>  <tasks>  (20) 
probe_placing close_aromatic_ring

>  <current_task>  (20) 
close_aromatic_ring

>  <prot_clashes>  (20) 
1

>  <NBS phar>  (20) 
0.2

>  <NBS_non-phar>  (20) 
0.9189163446426392

>  <NBS>  (20) 
1.1189163446426391

>  <source_stage>  (20) 
scored

>  <source_iter>  (20) 
1

>  <source_parent_mol>  (20) 
1

>  <source_scenario>  (20) 
1

>  <source_rank_in_scored_call>  (20) 
0

>  <source_current_task>  (20) 
close_aromatic_ring

>  <scenario>  (20) 
1

>  <reason_to_skip>  (20) 
some_atom_counter_exceeded

$$$$

     RDKit          3D

  5  4  0  0  0  0  0  0  0  0999 V2000
  -27.8640   -7.4760  -31.1990 C   0  0  0  0  0  0  0  0  0  0  0  0
  -27.5380   -6.7190  -32.2850 N   0  0  0  0  0  0  0  0  0  0  0  0
  -27.6840   -8.8650  -31.2620 N   0  0  0  0  0  0  0  0  0  0  0  0
  -27.8024   -5.3830  -31.8813 C   0  0  0  0  0  0  0  0  0  0  0  0
    0.0000    0.0000    0.0000 O   0  0  0  0  0  0  0  0  0  0  0  0
  1  2  2  3
  1  3  1  0
  2  4  1  0
  4  5  1  0
M  END
>  <name>  (21) 
Car Nac Nd0 Car O_a

>  <indices>  (21) 
[0, 1, 2]

>  <dummy>  (21) 
2

>  <tasks>  (21) 
probe_placing close_aromatic_ring

>  <current_task>  (21) 
close_aromatic_ring

>  <prot_clashes>  (21) 
1

>  <NBS phar>  (21) 
0.2

>  <NBS_non-phar>  (21) 
0.9189163446426392

>  <NBS>  (21) 
1.1189163446426391

>  <source_stage>  (21) 
scored

>  <source_iter>  (21) 
1

>  <source_parent_mol>  (21) 
1

>  <source_scenario>  (21) 
1

>  <source_rank_in_scored_call>  (21) 
0

>  <source_current_task>  (21) 
close_aromatic_ring

>  <scenario>  (21) 
1

>  <reason_to_skip>  (21) 
some_atom_counter_exceeded

$$$$

     RDKit          3D

  5  4  0  0  0  0  0  0  0  0999 V2000
  -27.8640   -7.4760  -31.1990 C   0  0  0  0  0  0  0  0  0  0  0  0
  -27.5380   -6.7190  -32.2850 N   0  0  0  0  0  0  0  0  0  0  0  0
  -27.6840   -8.8650  -31.2620 N   0  0  0  0  0  0  0  0  0  0  0  0
  -27.8024   -5.3830  -31.8813 C   0  0  0  0  0  0  0  0  0  0  0  0
  -28.9327   -4.8245  -31.4443 N   0  0  0  0  0  0  0  0  0  0  0  0
  1  2  2  3
  1  3  1  0
  2  4  1  0
  4  5  2  0
M  END
>  <name>  (22) 
Car Nac Nd0 Car Nac

>  <indices>  (22) 
[0, 1, 2]

>  <dummy>  (22) 
2

>  <tasks>  (22) 
probe_placing close_aromatic_ring

>  <current_task>  (22) 
close_aromatic_ring

>  <prot_clashes>  (22) 
1

>  <NBS phar>  (22) 
0.2

>  <NBS_non-phar>  (22) 
0.9189163446426392

>  <NBS>  (22) 
1.1189163446426391

>  <source_stage>  (22) 
scored

>  <source_iter>  (22) 
1

>  <source_parent_mol>  (22) 
1

>  <source_scenario>  (22) 
1

>  <source_rank_in_scored_call>  (22) 
0

>  <source_current_task>  (22) 
close_aromatic_ring

>  <scenario>  (22) 
1

>  <reason_to_skip>  (22) 
Car-Nac-DB dihedral

$$$$

     RDKit          3D

  5  4  0  0  0  0  0  0  0  0999 V2000
  -27.8640   -7.4760  -31.1990 C   0  0  0  0  0  0  0  0  0  0  0  0
  -27.5380   -6.7190  -32.2850 N   0  0  0  0  0  0  0  0  0  0  0  0
  -27.6840   -8.8650  -31.2620 N   0  0  0  0  0  0  0  0  0  0  0  0
  -27.8024   -5.3830  -31.8813 C   0  0  0  0  0  0  0  0  0  0  0  0
  -26.7459   -4.3620  -32.0145 C   0  0  0  0  0  0  0  0  0  0  0  0
  1  2  2  3
  1  3  1  0
  2  4  1  0
  4  5  1  0
M  END
>  <name>  (23) 
Car Nac Nd0 Car Car

>  <indices>  (23) 
[0, 1, 2]

>  <dummy>  (23) 
2

>  <tasks>  (23) 
probe_placing close_aromatic_ring

>  <current_task>  (23) 
close_aromatic_ring

>  <prot_clashes>  (23) 
1

>  <NBS phar>  (23) 
0.2

>  <NBS_non-phar>  (23) 
0.9189163446426392

>  <NBS>  (23) 
1.1189163446426391

>  <source_stage>  (23) 
scored

>  <source_iter>  (23) 
1

>  <source_parent_mol>  (23) 
1

>  <source_scenario>  (23) 
1

>  <source_rank_in_scored_call>  (23) 
0

>  <source_current_task>  (23) 
close_aromatic_ring

>  <scenario>  (23) 
1

>  <reason_to_skip>  (23) 
Car-Nac-DB dihedral

$$$$

     RDKit          3D

  5  4  0  0  0  0  0  0  0  0999 V2000
  -27.8640   -7.4760  -31.1990 C   0  0  0  0  0  0  0  0  0  0  0  0
  -27.5380   -6.7190  -32.2850 N   0  0  0  0  0  0  0  0  0  0  0  0
  -27.6840   -8.8650  -31.2620 N   0  0  0  0  0  0  0  0  0  0  0  0
  -27.8024   -5.3830  -31.8813 C   0  0  0  0  0  0  0  0  0  0  0  0
    0.0000    0.0000    0.0000 O   0  0  0  0  0  0  0  0  0  0  0  0
  1  2  2  3
  1  3  1  0
  2  4  1  0
  4  5  1  0
M  END
>  <name>  (24) 
Car Nac Nd0 Car O_a

>  <indices>  (24) 
[0, 1, 2]

>  <dummy>  (24) 
2

>  <tasks>  (24) 
probe_placing close_aromatic_ring

>  <current_task>  (24) 
close_aromatic_ring

>  <prot_clashes>  (24) 
1

>  <NBS phar>  (24) 
0.2

>  <NBS_non-phar>  (24) 
0.9189163446426392

>  <NBS>  (24) 
1.1189163446426391

>  <source_stage>  (24) 
scored

>  <source_iter>  (24) 
1

>  <source_parent_mol>  (24) 
1

>  <source_scenario>  (24) 
1

>  <source_rank_in_scored_call>  (24) 
0

>  <source_current_task>  (24) 
close_aromatic_ring

>  <scenario>  (24) 
1

>  <reason_to_skip>  (24) 
some_atom_counter_exceeded

$$$$

     RDKit          3D

  5  4  0  0  0  0  0  0  0  0999 V2000
  -27.8640   -7.4760  -31.1990 C   0  0  0  0  0  0  0  0  0  0  0  0
  -27.5380   -6.7190  -32.2850 N   0  0  0  0  0  0  0  0  0  0  0  0
  -27.6840   -8.8650  -31.2620 N   0  0  0  0  0  0  0  0  0  0  0  0
  -27.8024   -5.3830  -31.8813 C   0  0  0  0  0  0  0  0  0  0  0  0
  -26.7055   -4.5340  -32.0708 N   0  0  0  0  0  0  0  0  0  0  0  0
  1  2  2  3
  1  3  1  0
  2  4  1  0
  4  5  2  0
M  END
>  <name>  (25) 
Car Nac Nd0 Car Nac

>  <indices>  (25) 
[0, 1, 2]

>  <dummy>  (25) 
2

>  <tasks>  (25) 
probe_placing close_aromatic_ring

>  <current_task>  (25) 
close_aromatic_ring

>  <prot_clashes>  (25) 
1

>  <NBS phar>  (25) 
0.2

>  <NBS_non-phar>  (25) 
0.9189163446426392

>  <NBS>  (25) 
1.1189163446426391

>  <source_stage>  (25) 
scored

>  <source_iter>  (25) 
1

>  <source_parent_mol>  (25) 
1

>  <source_scenario>  (25) 
1

>  <source_rank_in_scored_call>  (25) 
0

>  <source_current_task>  (25) 
close_aromatic_ring

>  <scenario>  (25) 
1

>  <reason_to_skip>  (25) 
Car-Nac-DB dihedral

$$$$

     RDKit          3D

  5  4  0  0  0  0  0  0  0  0999 V2000
  -27.8640   -7.4760  -31.1990 C   0  0  0  0  0  0  0  0  0  0  0  0
  -27.5380   -6.7190  -32.2850 N   0  0  0  0  0  0  0  0  0  0  0  0
  -27.6840   -8.8650  -31.2620 N   0  0  0  0  0  0  0  0  0  0  0  0
  -27.8024   -5.3830  -31.8813 C   0  0  0  0  0  0  0  0  0  0  0  0
  -27.2975   -4.6587  -30.8660 C   0  0  0  0  0  0  0  0  0  0  0  0
  1  2  2  3
  1  3  1  0
  2  4  1  0
  4  5  1  0
M  END
>  <name>  (26) 
Car Nac Nd0 Car Car

>  <indices>  (26) 
[0, 1, 2]

>  <dummy>  (26) 
2

>  <tasks>  (26) 
probe_placing close_aromatic_ring

>  <current_task>  (26) 
close_aromatic_ring

>  <prot_clashes>  (26) 
1

>  <NBS phar>  (26) 
0.2

>  <NBS_non-phar>  (26) 
0.9189163446426392

>  <NBS>  (26) 
1.1189163446426391

>  <source_stage>  (26) 
scored

>  <source_iter>  (26) 
1

>  <source_parent_mol>  (26) 
1

>  <source_scenario>  (26) 
1

>  <source_rank_in_scored_call>  (26) 
0

>  <source_current_task>  (26) 
close_aromatic_ring

>  <scenario>  (26) 
1

>  <reason_to_skip>  (26) 
Car-Nac-DB dihedral

$$$$

     RDKit          3D

  5  4  0  0  0  0  0  0  0  0999 V2000
  -27.8640   -7.4760  -31.1990 C   0  0  0  0  0  0  0  0  0  0  0  0
  -27.5380   -6.7190  -32.2850 N   0  0  0  0  0  0  0  0  0  0  0  0
  -27.6840   -8.8650  -31.2620 N   0  0  0  0  0  0  0  0  0  0  0  0
  -27.8024   -5.3830  -31.8813 C   0  0  0  0  0  0  0  0  0  0  0  0
  -28.5850   -4.7057  -32.8251 N   0  0  0  0  0  0  0  0  0  0  0  0
  1  2  2  3
  1  3  1  0
  2  4  1  0
  4  5  2  0
M  END
>  <name>  (27) 
Car Nac Nd0 Car Nac

>  <indices>  (27) 
[0, 1, 2]

>  <dummy>  (27) 
2

>  <tasks>  (27) 
probe_placing close_aromatic_ring

>  <current_task>  (27) 
close_aromatic_ring

>  <prot_clashes>  (27) 
1

>  <NBS phar>  (27) 
0.2

>  <NBS_non-phar>  (27) 
0.9189163446426392

>  <NBS>  (27) 
1.1189163446426391

>  <source_stage>  (27) 
scored

>  <source_iter>  (27) 
1

>  <source_parent_mol>  (27) 
1

>  <source_scenario>  (27) 
1

>  <source_rank_in_scored_call>  (27) 
0

>  <source_current_task>  (27) 
close_aromatic_ring

>  <scenario>  (27) 
1

>  <reason_to_skip>  (27) 
Car-Nac-DB dihedral

$$$$

     RDKit          3D

  5  4  0  0  0  0  0  0  0  0999 V2000
  -27.8640   -7.4760  -31.1990 C   0  0  0  0  0  0  0  0  0  0  0  0
  -27.5380   -6.7190  -32.2850 N   0  0  0  0  0  0  0  0  0  0  0  0
  -27.6840   -8.8650  -31.2620 N   0  0  0  0  0  0  0  0  0  0  0  0
  -27.8024   -5.3830  -31.8813 C   0  0  0  0  0  0  0  0  0  0  0  0
    0.0000    0.0000    0.0000 S   0  0  0  0  0  0  0  0  0  0  0  0
  1  2  2  3
  1  3  1  0
  2  4  1  0
  4  5  1  0
M  END
>  <name>  (28) 
Car Nac Nd0 Car Sul

>  <indices>  (28) 
[0, 1, 2]

>  <dummy>  (28) 
2

>  <tasks>  (28) 
probe_placing close_aromatic_ring

>  <current_task>  (28) 
close_aromatic_ring

>  <prot_clashes>  (28) 
1

>  <NBS phar>  (28) 
0.2

>  <NBS_non-phar>  (28) 
0.9189163446426392

>  <NBS>  (28) 
1.1189163446426391

>  <source_stage>  (28) 
scored

>  <source_iter>  (28) 
1

>  <source_parent_mol>  (28) 
1

>  <source_scenario>  (28) 
1

>  <source_rank_in_scored_call>  (28) 
0

>  <source_current_task>  (28) 
close_aromatic_ring

>  <scenario>  (28) 
1

>  <reason_to_skip>  (28) 
some_atom_counter_exceeded

$$$$

     RDKit          3D

  5  4  0  0  0  0  0  0  0  0999 V2000
  -27.8640   -7.4760  -31.1990 C   0  0  0  0  0  0  0  0  0  0  0  0
  -27.5380   -6.7190  -32.2850 N   0  0  0  0  0  0  0  0  0  0  0  0
  -27.6840   -8.8650  -31.2620 N   0  0  0  0  0  0  0  0  0  0  0  0
  -27.8024   -5.3830  -31.8813 C   0  0  0  0  0  0  0  0  0  0  0  0
    0.0000    0.0000    0.0000 O   0  0  0  0  0  0  0  0  0  0  0  0
  1  2  2  3
  1  3  1  0
  2  4  1  0
  4  5  1  0
M  END
>  <name>  (29) 
Car Nac Nd0 Car O_a

>  <indices>  (29) 
[0, 1, 2]

>  <dummy>  (29) 
2

>  <tasks>  (29) 
probe_placing close_aromatic_ring

>  <current_task>  (29) 
close_aromatic_ring

>  <prot_clashes>  (29) 
1

>  <NBS phar>  (29) 
0.2

>  <NBS_non-phar>  (29) 
0.9189163446426392

>  <NBS>  (29) 
1.1189163446426391

>  <source_stage>  (29) 
scored

>  <source_iter>  (29) 
1

>  <source_parent_mol>  (29) 
1

>  <source_scenario>  (29) 
1

>  <source_rank_in_scored_call>  (29) 
0

>  <source_current_task>  (29) 
close_aromatic_ring

>  <scenario>  (29) 
1

>  <reason_to_skip>  (29) 
some_atom_counter_exceeded

$$$$

     RDKit          3D

  5  4  0  0  0  0  0  0  0  0999 V2000
  -27.8640   -7.4760  -31.1990 C   0  0  0  0  0  0  0  0  0  0  0  0
  -27.5380   -6.7190  -32.2850 N   0  0  0  0  0  0  0  0  0  0  0  0
  -27.6840   -8.8650  -31.2620 N   0  0  0  0  0  0  0  0  0  0  0  0
  -27.8024   -5.3830  -31.8813 C   0  0  0  0  0  0  0  0  0  0  0  0
  -28.2567   -4.6381  -30.7899 N   0  0  0  0  0  0  0  0  0  0  0  0
  1  2  2  3
  1  3  1  0
  2  4  1  0
  4  5  1  0
M  END
>  <name>  (30) 
Car Nac Nd0 Car Nd0

>  <indices>  (30) 
[0, 1, 2]

>  <dummy>  (30) 
2

>  <tasks>  (30) 
probe_placing close_aromatic_ring

>  <current_task>  (30) 
close_aromatic_ring

>  <prot_clashes>  (30) 
1

>  <NBS phar>  (30) 
0.2

>  <NBS_non-phar>  (30) 
0.9189163446426392

>  <NBS>  (30) 
1.1189163446426391

>  <source_stage>  (30) 
scored

>  <source_iter>  (30) 
1

>  <source_parent_mol>  (30) 
1

>  <source_scenario>  (30) 
1

>  <source_rank_in_scored_call>  (30) 
0

>  <source_current_task>  (30) 
close_aromatic_ring

>  <scenario>  (30) 
1

>  <reason_to_skip>  (30) 
bad angles

$$$$

     RDKit          3D

  5  4  0  0  0  0  0  0  0  0999 V2000
  -27.8640   -7.4760  -31.1990 C   0  0  0  0  0  0  0  0  0  0  0  0
  -27.5380   -6.7190  -32.2850 N   0  0  0  0  0  0  0  0  0  0  0  0
  -27.6840   -8.8650  -31.2620 N   0  0  0  0  0  0  0  0  0  0  0  0
  -27.8024   -5.3830  -31.8813 C   0  0  0  0  0  0  0  0  0  0  0  0
    0.0000    0.0000    0.0000 S   0  0  0  0  0  0  0  0  0  0  0  0
  1  2  2  3
  1  3  1  0
  2  4  1  0
  4  5  1  0
M  END
>  <name>  (31) 
Car Nac Nd0 Car Sul

>  <indices>  (31) 
[0, 1, 2]

>  <dummy>  (31) 
2

>  <tasks>  (31) 
probe_placing close_aromatic_ring

>  <current_task>  (31) 
close_aromatic_ring

>  <prot_clashes>  (31) 
1

>  <NBS phar>  (31) 
0.2

>  <NBS_non-phar>  (31) 
0.9189163446426392

>  <NBS>  (31) 
1.1189163446426391

>  <source_stage>  (31) 
scored

>  <source_iter>  (31) 
1

>  <source_parent_mol>  (31) 
1

>  <source_scenario>  (31) 
1

>  <source_rank_in_scored_call>  (31) 
0

>  <source_current_task>  (31) 
close_aromatic_ring

>  <scenario>  (31) 
1

>  <reason_to_skip>  (31) 
some_atom_counter_exceeded

$$$$

     RDKit          3D

  5  4  0  0  0  0  0  0  0  0999 V2000
  -27.8640   -7.4760  -31.1990 C   0  0  0  0  0  0  0  0  0  0  0  0
  -27.5380   -6.7190  -32.2850 N   0  0  0  0  0  0  0  0  0  0  0  0
  -27.6840   -8.8650  -31.2620 N   0  0  0  0  0  0  0  0  0  0  0  0
  -27.8024   -5.3830  -31.8813 C   0  0  0  0  0  0  0  0  0  0  0  0
  -26.7837   -4.5502  -31.3302 C   0  0  0  0  0  0  0  0  0  0  0  0
  1  2  2  3
  1  3  1  0
  2  4  1  0
  4  5  2  0
M  END
>  <name>  (32) 
Car Nac Nd0 Car Car

>  <indices>  (32) 
[0, 1, 2]

>  <dummy>  (32) 
2

>  <tasks>  (32) 
probe_placing close_aromatic_ring

>  <current_task>  (32) 
close_aromatic_ring

>  <prot_clashes>  (32) 
1

>  <NBS phar>  (32) 
0.2

>  <NBS_non-phar>  (32) 
0.9189163446426392

>  <NBS>  (32) 
1.1189163446426391

>  <source_stage>  (32) 
scored

>  <source_iter>  (32) 
1

>  <source_parent_mol>  (32) 
1

>  <source_scenario>  (32) 
1

>  <source_rank_in_scored_call>  (32) 
0

>  <source_current_task>  (32) 
close_aromatic_ring

>  <scenario>  (32) 
1

>  <reason_to_skip>  (32) 
Car-Nac-DB dihedral

$$$$

     RDKit          3D

  5  4  0  0  0  0  0  0  0  0999 V2000
  -27.8640   -7.4760  -31.1990 C   0  0  0  0  0  0  0  0  0  0  0  0
  -27.5380   -6.7190  -32.2850 N   0  0  0  0  0  0  0  0  0  0  0  0
  -27.6840   -8.8650  -31.2620 N   0  0  0  0  0  0  0  0  0  0  0  0
  -27.8024   -5.3830  -31.8813 C   0  0  0  0  0  0  0  0  0  0  0  0
  -28.9522   -4.6649  -32.4225 C   0  0  0  0  0  0  0  0  0  0  0  0
  1  2  2  3
  1  3  1  0
  2  4  1  0
  4  5  1  0
M  END
>  <name>  (33) 
Car Nac Nd0 Car Car

>  <indices>  (33) 
[0, 1, 2]

>  <dummy>  (33) 
2

>  <tasks>  (33) 
probe_placing close_aromatic_ring

>  <current_task>  (33) 
close_aromatic_ring

>  <prot_clashes>  (33) 
1

>  <NBS phar>  (33) 
0.2

>  <NBS_non-phar>  (33) 
0.9189163446426392

>  <NBS>  (33) 
1.1189163446426391

>  <source_stage>  (33) 
scored

>  <source_iter>  (33) 
1

>  <source_parent_mol>  (33) 
1

>  <source_scenario>  (33) 
1

>  <source_rank_in_scored_call>  (33) 
0

>  <source_current_task>  (33) 
close_aromatic_ring

>  <scenario>  (33) 
1

>  <reason_to_skip>  (33) 
Car-Nac-DB dihedral

$$$$

     RDKit          3D

  5  4  0  0  0  0  0  0  0  0999 V2000
  -27.8640   -7.4760  -31.1990 C   0  0  0  0  0  0  0  0  0  0  0  0
  -27.5380   -6.7190  -32.2850 N   0  0  0  0  0  0  0  0  0  0  0  0
  -27.6840   -8.8650  -31.2620 N   0  0  0  0  0  0  0  0  0  0  0  0
  -27.8024   -5.3830  -31.8813 C   0  0  0  0  0  0  0  0  0  0  0  0
  -27.4973   -4.4439  -32.9311 N   0  0  0  0  0  0  0  0  0  0  0  0
  1  2  2  3
  1  3  1  0
  2  4  1  0
  4  5  1  0
M  END
>  <name>  (34) 
Car Nac Nd0 Car Nac

>  <indices>  (34) 
[0, 1, 2]

>  <dummy>  (34) 
2

>  <tasks>  (34) 
probe_placing close_aromatic_ring

>  <current_task>  (34) 
close_aromatic_ring

>  <prot_clashes>  (34) 
1

>  <NBS phar>  (34) 
0.2

>  <NBS_non-phar>  (34) 
0.9189163446426392

>  <NBS>  (34) 
1.1189163446426391

>  <source_stage>  (34) 
scored

>  <source_iter>  (34) 
1

>  <source_parent_mol>  (34) 
1

>  <source_scenario>  (34) 
1

>  <source_rank_in_scored_call>  (34) 
0

>  <source_current_task>  (34) 
close_aromatic_ring

>  <scenario>  (34) 
1

>  <reason_to_skip>  (34) 
subgraph mismatch

$$$$

     RDKit          3D

  5  4  0  0  0  0  0  0  0  0999 V2000
  -27.8640   -7.4760  -31.1990 C   0  0  0  0  0  0  0  0  0  0  0  0
  -27.5380   -6.7190  -32.2850 N   0  0  0  0  0  0  0  0  0  0  0  0
  -27.6840   -8.8650  -31.2620 N   0  0  0  0  0  0  0  0  0  0  0  0
  -27.8024   -5.3830  -31.8813 C   0  0  0  0  0  0  0  0  0  0  0  0
  -28.2753   -5.3781  -30.6031 N   0  0  0  0  0  0  0  0  0  0  0  0
  1  2  2  3
  1  3  1  0
  2  4  1  0
  4  5  1  0
M  END
>  <name>  (35) 
Car Nac Nd0 Car Nac

>  <indices>  (35) 
[0, 1, 2]

>  <dummy>  (35) 
2

>  <tasks>  (35) 
probe_placing close_aromatic_ring

>  <current_task>  (35) 
close_aromatic_ring

>  <prot_clashes>  (35) 
1

>  <NBS phar>  (35) 
0.2

>  <NBS_non-phar>  (35) 
0.9189163446426392

>  <NBS>  (35) 
1.1189163446426391

>  <source_stage>  (35) 
scored

>  <source_iter>  (35) 
1

>  <source_parent_mol>  (35) 
1

>  <source_scenario>  (35) 
1

>  <source_rank_in_scored_call>  (35) 
0

>  <source_current_task>  (35) 
close_aromatic_ring

>  <scenario>  (35) 
1

>  <reason_to_skip>  (35) 
subgraph mismatch

$$$$

     RDKit          3D

  5  4  0  0  0  0  0  0  0  0999 V2000
  -27.8640   -7.4760  -31.1990 C   0  0  0  0  0  0  0  0  0  0  0  0
  -27.5380   -6.7190  -32.2850 N   0  0  0  0  0  0  0  0  0  0  0  0
  -27.6840   -8.8650  -31.2620 N   0  0  0  0  0  0  0  0  0  0  0  0
  -27.8024   -5.3830  -31.8813 C   0  0  0  0  0  0  0  0  0  0  0  0
  -27.5389   -4.6212  -33.0945 N   0  0  0  0  0  0  0  0  0  0  0  0
  1  2  2  3
  1  3  1  0
  2  4  1  0
  4  5  1  0
M  END
>  <name>  (36) 
Car Nac Nd0 Car Nac

>  <indices>  (36) 
[0, 1, 2]

>  <dummy>  (36) 
2

>  <tasks>  (36) 
probe_placing close_aromatic_ring

>  <current_task>  (36) 
close_aromatic_ring

>  <prot_clashes>  (36) 
1

>  <NBS phar>  (36) 
0.2

>  <NBS_non-phar>  (36) 
0.9189163446426392

>  <NBS>  (36) 
1.1189163446426391

>  <source_stage>  (36) 
scored

>  <source_iter>  (36) 
1

>  <source_parent_mol>  (36) 
1

>  <source_scenario>  (36) 
1

>  <source_rank_in_scored_call>  (36) 
0

>  <source_current_task>  (36) 
close_aromatic_ring

>  <scenario>  (36) 
1

>  <reason_to_skip>  (36) 
subgraph mismatch

$$$$

     RDKit          3D

  5  4  0  0  0  0  0  0  0  0999 V2000
  -27.8640   -7.4760  -31.1990 C   0  0  0  0  0  0  0  0  0  0  0  0
  -27.5380   -6.7190  -32.2850 N   0  0  0  0  0  0  0  0  0  0  0  0
  -27.6840   -8.8650  -31.2620 N   0  0  0  0  0  0  0  0  0  0  0  0
  -27.8024   -5.3830  -31.8813 C   0  0  0  0  0  0  0  0  0  0  0  0
  -28.2254   -4.9286  -30.8154 N   0  0  0  0  0  0  0  0  0  0  0  0
  1  2  2  3
  1  3  1  0
  2  4  1  0
  4  5  1  0
M  END
>  <name>  (37) 
Car Nac Nd0 Car Nac

>  <indices>  (37) 
[0, 1, 2]

>  <dummy>  (37) 
2

>  <tasks>  (37) 
probe_placing close_aromatic_ring

>  <current_task>  (37) 
close_aromatic_ring

>  <prot_clashes>  (37) 
1

>  <NBS phar>  (37) 
0.2

>  <NBS_non-phar>  (37) 
0.9189163446426392

>  <NBS>  (37) 
1.1189163446426391

>  <source_stage>  (37) 
scored

>  <source_iter>  (37) 
1

>  <source_parent_mol>  (37) 
1

>  <source_scenario>  (37) 
1

>  <source_rank_in_scored_call>  (37) 
0

>  <source_current_task>  (37) 
close_aromatic_ring

>  <scenario>  (37) 
1

>  <reason_to_skip>  (37) 
subgraph mismatch

$$$$

     RDKit          3D

  5  4  0  0  0  0  0  0  0  0999 V2000
  -27.8640   -7.4760  -31.1990 C   0  0  0  0  0  0  0  0  0  0  0  0
  -27.5380   -6.7190  -32.2850 N   0  0  0  0  0  0  0  0  0  0  0  0
  -27.6840   -8.8650  -31.2620 N   0  0  0  0  0  0  0  0  0  0  0  0
  -27.8024   -5.3830  -31.8813 C   0  0  0  0  0  0  0  0  0  0  0  0
  -27.6153   -4.2950  -32.6623 N   0  0  0  0  0  0  0  0  0  0  0  0
  1  2  2  3
  1  3  1  0
  2  4  1  0
  4  5  1  0
M  END
>  <name>  (38) 
Car Nac Nd0 Car Nac

>  <indices>  (38) 
[0, 1, 2]

>  <dummy>  (38) 
2

>  <tasks>  (38) 
probe_placing close_aromatic_ring

>  <current_task>  (38) 
close_aromatic_ring

>  <prot_clashes>  (38) 
1

>  <NBS phar>  (38) 
0.2

>  <NBS_non-phar>  (38) 
0.9189163446426392

>  <NBS>  (38) 
1.1189163446426391

>  <source_stage>  (38) 
scored

>  <source_iter>  (38) 
1

>  <source_parent_mol>  (38) 
1

>  <source_scenario>  (38) 
1

>  <source_rank_in_scored_call>  (38) 
0

>  <source_current_task>  (38) 
close_aromatic_ring

>  <scenario>  (38) 
1

>  <reason_to_skip>  (38) 
subgraph mismatch

$$$$

     RDKit          3D

  5  4  0  0  0  0  0  0  0  0999 V2000
  -27.8640   -7.4760  -31.1990 C   0  0  0  0  0  0  0  0  0  0  0  0
  -27.5380   -6.7190  -32.2850 N   0  0  0  0  0  0  0  0  0  0  0  0
  -27.6840   -8.8650  -31.2620 N   0  0  0  0  0  0  0  0  0  0  0  0
  -27.8024   -5.3830  -31.8813 C   0  0  0  0  0  0  0  0  0  0  0  0
  -28.3156   -4.7356  -30.6200 N   0  0  0  0  0  0  0  0  0  0  0  0
  1  2  2  3
  1  3  1  0
  2  4  1  0
  4  5  1  0
M  END
>  <name>  (39) 
Car Nac Nd0 Car Nac

>  <indices>  (39) 
[0, 1, 2]

>  <dummy>  (39) 
2

>  <tasks>  (39) 
probe_placing close_aromatic_ring

>  <current_task>  (39) 
close_aromatic_ring

>  <prot_clashes>  (39) 
1

>  <NBS phar>  (39) 
0.2

>  <NBS_non-phar>  (39) 
0.9189163446426392

>  <NBS>  (39) 
1.1189163446426391

>  <source_stage>  (39) 
scored

>  <source_iter>  (39) 
1

>  <source_parent_mol>  (39) 
1

>  <source_scenario>  (39) 
1

>  <source_rank_in_scored_call>  (39) 
0

>  <source_current_task>  (39) 
close_aromatic_ring

>  <scenario>  (39) 
1

>  <reason_to_skip>  (39) 
subgraph mismatch

$$$$

     RDKit          3D

  5  4  0  0  0  0  0  0  0  0999 V2000
  -27.8640   -7.4760  -31.1990 C   0  0  0  0  0  0  0  0  0  0  0  0
  -27.5380   -6.7190  -32.2850 N   0  0  0  0  0  0  0  0  0  0  0  0
  -27.6840   -8.8650  -31.2620 N   0  0  0  0  0  0  0  0  0  0  0  0
  -27.8024   -5.3830  -31.8813 C   0  0  0  0  0  0  0  0  0  0  0  0
  -27.6308   -4.2813  -32.6095 N   0  0  0  0  0  0  0  0  0  0  0  0
  1  2  2  3
  1  3  1  0
  2  4  1  0
  4  5  2  0
M  END
>  <name>  (40) 
Car Nac Nd0 Car Nac

>  <indices>  (40) 
[0, 1, 2]

>  <dummy>  (40) 
2

>  <tasks>  (40) 
probe_placing close_aromatic_ring

>  <current_task>  (40) 
close_aromatic_ring

>  <prot_clashes>  (40) 
1

>  <NBS phar>  (40) 
0.2

>  <NBS_non-phar>  (40) 
0.9189163446426392

>  <NBS>  (40) 
1.1189163446426391

>  <source_stage>  (40) 
scored

>  <source_iter>  (40) 
1

>  <source_parent_mol>  (40) 
1

>  <source_scenario>  (40) 
1

>  <source_rank_in_scored_call>  (40) 
0

>  <source_current_task>  (40) 
close_aromatic_ring

>  <scenario>  (40) 
1

>  <reason_to_skip>  (40) 
subgraph mismatch

$$$$

     RDKit          3D

  5  4  0  0  0  0  0  0  0  0999 V2000
  -27.8640   -7.4760  -31.1990 C   0  0  0  0  0  0  0  0  0  0  0  0
  -27.5380   -6.7190  -32.2850 N   0  0  0  0  0  0  0  0  0  0  0  0
  -27.6840   -8.8650  -31.2620 N   0  0  0  0  0  0  0  0  0  0  0  0
  -27.8024   -5.3830  -31.8813 C   0  0  0  0  0  0  0  0  0  0  0  0
  -28.2389   -4.8904  -30.7630 N   0  0  0  0  0  0  0  0  0  0  0  0
  1  2  2  3
  1  3  1  0
  2  4  1  0
  4  5  2  0
M  END
>  <name>  (41) 
Car Nac Nd0 Car Nac

>  <indices>  (41) 
[0, 1, 2]

>  <dummy>  (41) 
2

>  <tasks>  (41) 
probe_placing close_aromatic_ring

>  <current_task>  (41) 
close_aromatic_ring

>  <prot_clashes>  (41) 
1

>  <NBS phar>  (41) 
0.2

>  <NBS_non-phar>  (41) 
0.9189163446426392

>  <NBS>  (41) 
1.1189163446426391

>  <source_stage>  (41) 
scored

>  <source_iter>  (41) 
1

>  <source_parent_mol>  (41) 
1

>  <source_scenario>  (41) 
1

>  <source_rank_in_scored_call>  (41) 
0

>  <source_current_task>  (41) 
close_aromatic_ring

>  <scenario>  (41) 
1

>  <reason_to_skip>  (41) 
subgraph mismatch

$$$$

     RDKit          3D

  5  4  0  0  0  0  0  0  0  0999 V2000
  -27.8640   -7.4760  -31.1990 C   0  0  0  0  0  0  0  0  0  0  0  0
  -27.5380   -6.7190  -32.2850 N   0  0  0  0  0  0  0  0  0  0  0  0
  -27.6840   -8.8650  -31.2620 N   0  0  0  0  0  0  0  0  0  0  0  0
  -27.8024   -5.3830  -31.8813 C   0  0  0  0  0  0  0  0  0  0  0  0
  -28.2401   -5.3059  -30.6619 N   0  0  0  0  0  0  0  0  0  0  0  0
  1  2  2  3
  1  3  1  0
  2  4  1  0
  4  5  2  0
M  END
>  <name>  (42) 
Car Nac Nd0 Car Nac

>  <indices>  (42) 
[0, 1, 2]

>  <dummy>  (42) 
2

>  <tasks>  (42) 
probe_placing close_aromatic_ring

>  <current_task>  (42) 
close_aromatic_ring

>  <prot_clashes>  (42) 
1

>  <NBS phar>  (42) 
0.2

>  <NBS_non-phar>  (42) 
0.9189163446426392

>  <NBS>  (42) 
1.1189163446426391

>  <source_stage>  (42) 
scored

>  <source_iter>  (42) 
1

>  <source_parent_mol>  (42) 
1

>  <source_scenario>  (42) 
1

>  <source_rank_in_scored_call>  (42) 
0

>  <source_current_task>  (42) 
close_aromatic_ring

>  <scenario>  (42) 
1

>  <reason_to_skip>  (42) 
subgraph mismatch

$$$$

     RDKit          3D

  5  4  0  0  0  0  0  0  0  0999 V2000
  -27.8640   -7.4760  -31.1990 C   0  0  0  0  0  0  0  0  0  0  0  0
  -27.5380   -6.7190  -32.2850 N   0  0  0  0  0  0  0  0  0  0  0  0
  -27.6840   -8.8650  -31.2620 N   0  0  0  0  0  0  0  0  0  0  0  0
  -27.8024   -5.3830  -31.8813 C   0  0  0  0  0  0  0  0  0  0  0  0
  -27.5455   -4.4214  -32.9781 N   0  0  0  0  0  0  0  0  0  0  0  0
  1  2  2  3
  1  3  1  0
  2  4  1  0
  4  5  2  0
M  END
>  <name>  (43) 
Car Nac Nd0 Car Nac

>  <indices>  (43) 
[0, 1, 2]

>  <dummy>  (43) 
2

>  <tasks>  (43) 
probe_placing close_aromatic_ring

>  <current_task>  (43) 
close_aromatic_ring

>  <prot_clashes>  (43) 
1

>  <NBS phar>  (43) 
0.2

>  <NBS_non-phar>  (43) 
0.9189163446426392

>  <NBS>  (43) 
1.1189163446426391

>  <source_stage>  (43) 
scored

>  <source_iter>  (43) 
1

>  <source_parent_mol>  (43) 
1

>  <source_scenario>  (43) 
1

>  <source_rank_in_scored_call>  (43) 
0

>  <source_current_task>  (43) 
close_aromatic_ring

>  <scenario>  (43) 
1

>  <reason_to_skip>  (43) 
subgraph mismatch

$$$$

     RDKit          3D

  5  4  0  0  0  0  0  0  0  0999 V2000
  -27.8640   -7.4760  -31.1990 C   0  0  0  0  0  0  0  0  0  0  0  0
  -27.5380   -6.7190  -32.2850 N   0  0  0  0  0  0  0  0  0  0  0  0
  -27.6840   -8.8650  -31.2620 N   0  0  0  0  0  0  0  0  0  0  0  0
  -27.8024   -5.3830  -31.8813 C   0  0  0  0  0  0  0  0  0  0  0  0
  -27.5065   -4.4765  -32.9103 N   0  0  0  0  0  0  0  0  0  0  0  0
  1  2  2  3
  1  3  1  0
  2  4  1  0
  4  5  1  0
M  END
>  <name>  (44) 
Car Nac Nd0 Car Nd0

>  <indices>  (44) 
[0, 1, 2]

>  <dummy>  (44) 
2

>  <tasks>  (44) 
probe_placing close_aromatic_ring

>  <current_task>  (44) 
close_aromatic_ring

>  <prot_clashes>  (44) 
1

>  <NBS phar>  (44) 
0.2

>  <NBS_non-phar>  (44) 
0.9189163446426392

>  <NBS>  (44) 
1.1189163446426391

>  <source_stage>  (44) 
scored

>  <source_iter>  (44) 
1

>  <source_parent_mol>  (44) 
1

>  <source_scenario>  (44) 
1

>  <source_rank_in_scored_call>  (44) 
0

>  <source_current_task>  (44) 
close_aromatic_ring

>  <scenario>  (44) 
1

>  <reason_to_skip>  (44) 
subgraph mismatch

$$$$

     RDKit          3D

  5  4  0  0  0  0  0  0  0  0999 V2000
  -27.8640   -7.4760  -31.1990 C   0  0  0  0  0  0  0  0  0  0  0  0
  -27.5380   -6.7190  -32.2850 N   0  0  0  0  0  0  0  0  0  0  0  0
  -27.6840   -8.8650  -31.2620 N   0  0  0  0  0  0  0  0  0  0  0  0
  -27.8024   -5.3830  -31.8813 C   0  0  0  0  0  0  0  0  0  0  0  0
  -27.6265   -4.2874  -32.7276 N   0  0  0  0  0  0  0  0  0  0  0  0
  1  2  2  3
  1  3  1  0
  2  4  1  0
  4  5  1  0
M  END
>  <name>  (45) 
Car Nac Nd0 Car Nd0

>  <indices>  (45) 
[0, 1, 2]

>  <dummy>  (45) 
2

>  <tasks>  (45) 
probe_placing close_aromatic_ring

>  <current_task>  (45) 
close_aromatic_ring

>  <prot_clashes>  (45) 
1

>  <NBS phar>  (45) 
0.2

>  <NBS_non-phar>  (45) 
0.9189163446426392

>  <NBS>  (45) 
1.1189163446426391

>  <source_stage>  (45) 
scored

>  <source_iter>  (45) 
1

>  <source_parent_mol>  (45) 
1

>  <source_scenario>  (45) 
1

>  <source_rank_in_scored_call>  (45) 
0

>  <source_current_task>  (45) 
close_aromatic_ring

>  <scenario>  (45) 
1

>  <reason_to_skip>  (45) 
subgraph mismatch

$$$$

     RDKit          3D

  5  4  0  0  0  0  0  0  0  0999 V2000
  -27.8640   -7.4760  -31.1990 C   0  0  0  0  0  0  0  0  0  0  0  0
  -27.5380   -6.7190  -32.2850 N   0  0  0  0  0  0  0  0  0  0  0  0
  -27.6840   -8.8650  -31.2620 N   0  0  0  0  0  0  0  0  0  0  0  0
  -27.8024   -5.3830  -31.8813 C   0  0  0  0  0  0  0  0  0  0  0  0
  -28.3024   -5.3303  -30.6263 N   0  0  0  0  0  0  0  0  0  0  0  0
  1  2  2  3
  1  3  1  0
  2  4  1  0
  4  5  1  0
M  END
>  <name>  (46) 
Car Nac Nd0 Car Nd0

>  <indices>  (46) 
[0, 1, 2]

>  <dummy>  (46) 
2

>  <tasks>  (46) 
probe_placing close_aromatic_ring

>  <current_task>  (46) 
close_aromatic_ring

>  <prot_clashes>  (46) 
1

>  <NBS phar>  (46) 
0.2

>  <NBS_non-phar>  (46) 
0.9189163446426392

>  <NBS>  (46) 
1.1189163446426391

>  <source_stage>  (46) 
scored

>  <source_iter>  (46) 
1

>  <source_parent_mol>  (46) 
1

>  <source_scenario>  (46) 
1

>  <source_rank_in_scored_call>  (46) 
0

>  <source_current_task>  (46) 
close_aromatic_ring

>  <scenario>  (46) 
1

>  <reason_to_skip>  (46) 
subgraph mismatch

$$$$

     RDKit          3D

  5  4  0  0  0  0  0  0  0  0999 V2000
  -27.8640   -7.4760  -31.1990 C   0  0  0  0  0  0  0  0  0  0  0  0
  -27.5380   -6.7190  -32.2850 N   0  0  0  0  0  0  0  0  0  0  0  0
  -27.6840   -8.8650  -31.2620 N   0  0  0  0  0  0  0  0  0  0  0  0
  -27.8024   -5.3830  -31.8813 C   0  0  0  0  0  0  0  0  0  0  0  0
  -28.2839   -4.8932  -30.7839 N   0  0  0  0  0  0  0  0  0  0  0  0
  1  2  2  3
  1  3  1  0
  2  4  1  0
  4  5  1  0
M  END
>  <name>  (47) 
Car Nac Nd0 Car Nd0

>  <indices>  (47) 
[0, 1, 2]

>  <dummy>  (47) 
2

>  <tasks>  (47) 
probe_placing close_aromatic_ring

>  <current_task>  (47) 
close_aromatic_ring

>  <prot_clashes>  (47) 
1

>  <NBS phar>  (47) 
0.2

>  <NBS_non-phar>  (47) 
0.9189163446426392

>  <NBS>  (47) 
1.1189163446426391

>  <source_stage>  (47) 
scored

>  <source_iter>  (47) 
1

>  <source_parent_mol>  (47) 
1

>  <source_scenario>  (47) 
1

>  <source_rank_in_scored_call>  (47) 
0

>  <source_current_task>  (47) 
close_aromatic_ring

>  <scenario>  (47) 
1

>  <reason_to_skip>  (47) 
subgraph mismatch

$$$$

     RDKit          3D

  6  5  0  0  0  0  0  0  0  0999 V2000
  -27.8640   -7.4760  -31.1990 C   0  0  0  0  0  0  0  0  0  0  0  0
  -27.5380   -6.7190  -32.2850 N   0  0  0  0  0  0  0  0  0  0  0  0
  -27.6840   -8.8650  -31.2620 N   0  0  0  0  0  0  0  0  0  0  0  0
  -27.8024   -5.3830  -31.8813 C   0  0  0  0  0  0  0  0  0  0  0  0
  -28.2578   -4.8905  -30.7215 C   0  0  0  0  0  0  0  0  0  0  0  0
  -28.4644   -3.5853  -30.4848 C   0  0  0  0  0  0  0  0  0  0  0  0
  1  2  2  3
  1  3  1  0
  2  4  1  0
  4  5  1  0
  5  6  1  0
M  END
>  <name>  (1) 
Car Nac Nd0 Car Car Car

>  <indices>  (1) 
[0, 1, 2]

>  <dummy>  (1) 
2

>  <tasks>  (1) 
probe_placing close_aromatic_ring close_aromatic_ring

>  <current_task>  (1) 
close_aromatic_ring

>  <prot_clashes>  (1) 
0

>  <NBS phar>  (1) 
0.2

>  <NBS_non-phar>  (1) 
0.8961941719055175

>  <NBS>  (1) 
1.0961941719055175

>  <source_stage>  (1) 
scored

>  <source_iter>  (1) 
2

>  <source_parent_mol>  (1) 
0

>  <source_scenario>  (1) 
1 0

>  <source_rank_in_scored_call>  (1) 
0

>  <source_current_task>  (1) 
close_aromatic_ring

>  <scenario>  (1) 
1 0

>  <rotatable_bond_torsions>  (1) 
0,1,3,4

>  <reason_to_skip>  (1) 
incorrect arom ring closing

$$$$

     RDKit          3D

  6  5  0  0  0  0  0  0  0  0999 V2000
  -27.8640   -7.4760  -31.1990 C   0  0  0  0  0  0  0  0  0  0  0  0
  -27.5380   -6.7190  -32.2850 N   0  0  0  0  0  0  0  0  0  0  0  0
  -27.6840   -8.8650  -31.2620 N   0  0  0  0  0  0  0  0  0  0  0  0
  -27.8024   -5.3830  -31.8813 C   0  0  0  0  0  0  0  0  0  0  0  0
  -28.2578   -4.8905  -30.7215 C   0  0  0  0  0  0  0  0  0  0  0  0
  -28.4734   -3.6233  -30.4242 C   0  0  0  0  0  0  0  0  0  0  0  0
  1  2  2  3
  1  3  1  0
  2  4  1  0
  4  5  1  0
  5  6  2  0
M  END
>  <name>  (2) 
Car Nac Nd0 Car Car Car

>  <indices>  (2) 
[0, 1, 2]

>  <dummy>  (2) 
2

>  <tasks>  (2) 
probe_placing close_aromatic_ring close_aromatic_ring

>  <current_task>  (2) 
close_aromatic_ring

>  <prot_clashes>  (2) 
0

>  <NBS phar>  (2) 
0.2

>  <NBS_non-phar>  (2) 
0.8961941719055175

>  <NBS>  (2) 
1.0961941719055175

>  <source_stage>  (2) 
scored

>  <source_iter>  (2) 
2

>  <source_parent_mol>  (2) 
0

>  <source_scenario>  (2) 
1 0

>  <source_rank_in_scored_call>  (2) 
0

>  <source_current_task>  (2) 
close_aromatic_ring

>  <scenario>  (2) 
1 0

>  <rotatable_bond_torsions>  (2) 
0,1,3,4

>  <reason_to_skip>  (2) 
incorrect arom ring closing

$$$$

     RDKit          3D

  6  5  0  0  0  0  0  0  0  0999 V2000
  -27.8640   -7.4760  -31.1990 C   0  0  0  0  0  0  0  0  0  0  0  0
  -27.5380   -6.7190  -32.2850 N   0  0  0  0  0  0  0  0  0  0  0  0
  -27.6840   -8.8650  -31.2620 N   0  0  0  0  0  0  0  0  0  0  0  0
  -27.8024   -5.3830  -31.8813 C   0  0  0  0  0  0  0  0  0  0  0  0
  -28.2578   -4.8905  -30.7215 C   0  0  0  0  0  0  0  0  0  0  0  0
  -28.4739   -3.5954  -30.4764 N   0  0  0  0  0  0  0  0  0  0  0  0
  1  2  2  3
  1  3  1  0
  2  4  1  0
  4  5  1  0
  5  6  2  0
M  END
>  <name>  (3) 
Car Nac Nd0 Car Car Nac

>  <indices>  (3) 
[0, 1, 2]

>  <dummy>  (3) 
2

>  <tasks>  (3) 
probe_placing close_aromatic_ring close_aromatic_ring

>  <current_task>  (3) 
close_aromatic_ring

>  <prot_clashes>  (3) 
0

>  <NBS phar>  (3) 
0.2

>  <NBS_non-phar>  (3) 
0.8961941719055175

>  <NBS>  (3) 
1.0961941719055175

>  <source_stage>  (3) 
scored

>  <source_iter>  (3) 
2

>  <source_parent_mol>  (3) 
0

>  <source_scenario>  (3) 
1 0

>  <source_rank_in_scored_call>  (3) 
0

>  <source_current_task>  (3) 
close_aromatic_ring

>  <scenario>  (3) 
1 0

>  <rotatable_bond_torsions>  (3) 
0,1,3,4

>  <reason_to_skip>  (3) 
incorrect arom ring closing

$$$$

     RDKit          3D

  6  5  0  0  0  0  0  0  0  0999 V2000
  -27.8640   -7.4760  -31.1990 C   0  0  0  0  0  0  0  0  0  0  0  0
  -27.5380   -6.7190  -32.2850 N   0  0  0  0  0  0  0  0  0  0  0  0
  -27.6840   -8.8650  -31.2620 N   0  0  0  0  0  0  0  0  0  0  0  0
  -27.8024   -5.3830  -31.8813 C   0  0  0  0  0  0  0  0  0  0  0  0
  -28.2578   -4.8905  -30.7215 C   0  0  0  0  0  0  0  0  0  0  0  0
  -28.3677   -6.2546  -30.0570 N   0  0  0  0  0  0  0  0  0  0  0  0
  1  2  2  3
  1  3  1  0
  2  4  1  0
  4  5  1  0
  5  6  1  0
M  END
>  <name>  (4) 
Car Nac Nd0 Car Car Nac

>  <indices>  (4) 
[0, 1, 2]

>  <dummy>  (4) 
2

>  <tasks>  (4) 
probe_placing close_aromatic_ring close_aromatic_ring

>  <current_task>  (4) 
close_aromatic_ring

>  <prot_clashes>  (4) 
0

>  <NBS phar>  (4) 
0.2

>  <NBS_non-phar>  (4) 
0.8961941719055175

>  <NBS>  (4) 
1.0961941719055175

>  <source_stage>  (4) 
scored

>  <source_iter>  (4) 
2

>  <source_parent_mol>  (4) 
0

>  <source_scenario>  (4) 
1 0

>  <source_rank_in_scored_call>  (4) 
0

>  <source_current_task>  (4) 
close_aromatic_ring

>  <scenario>  (4) 
1 0

>  <rotatable_bond_torsions>  (4) 
0,1,3,4

>  <reason_to_skip>  (4) 
bad angles

$$$$

     RDKit          3D

  6  5  0  0  0  0  0  0  0  0999 V2000
  -27.8640   -7.4760  -31.1990 C   0  0  0  0  0  0  0  0  0  0  0  0
  -27.5380   -6.7190  -32.2850 N   0  0  0  0  0  0  0  0  0  0  0  0
  -27.6840   -8.8650  -31.2620 N   0  0  0  0  0  0  0  0  0  0  0  0
  -27.8024   -5.3830  -31.8813 C   0  0  0  0  0  0  0  0  0  0  0  0
  -28.2578   -4.8905  -30.7215 C   0  0  0  0  0  0  0  0  0  0  0  0
  -28.4144   -3.5173  -30.6330 N   0  0  0  0  0  0  0  0  0  0  0  0
  1  2  2  3
  1  3  1  0
  2  4  1  0
  4  5  1  0
  5  6  1  0
M  END
>  <name>  (5) 
Car Nac Nd0 Car Car Nac

>  <indices>  (5) 
[0, 1, 2]

>  <dummy>  (5) 
2

>  <tasks>  (5) 
probe_placing close_aromatic_ring close_aromatic_ring

>  <current_task>  (5) 
close_aromatic_ring

>  <prot_clashes>  (5) 
0

>  <NBS phar>  (5) 
0.2

>  <NBS_non-phar>  (5) 
0.8961941719055175

>  <NBS>  (5) 
1.0961941719055175

>  <source_stage>  (5) 
scored

>  <source_iter>  (5) 
2

>  <source_parent_mol>  (5) 
0

>  <source_scenario>  (5) 
1 0

>  <source_rank_in_scored_call>  (5) 
0

>  <source_current_task>  (5) 
close_aromatic_ring

>  <scenario>  (5) 
1 0

>  <rotatable_bond_torsions>  (5) 
0,1,3,4

>  <reason_to_skip>  (5) 
incorrect arom ring closing

$$$$

     RDKit          3D

  6  5  0  0  0  0  0  0  0  0999 V2000
  -27.8640   -7.4760  -31.1990 C   0  0  0  0  0  0  0  0  0  0  0  0
  -27.5380   -6.7190  -32.2850 N   0  0  0  0  0  0  0  0  0  0  0  0
  -27.6840   -8.8650  -31.2620 N   0  0  0  0  0  0  0  0  0  0  0  0
  -27.8024   -5.3830  -31.8813 C   0  0  0  0  0  0  0  0  0  0  0  0
  -28.2578   -4.8905  -30.7215 C   0  0  0  0  0  0  0  0  0  0  0  0
  -29.1858   -3.8914  -30.6036 C   0  0  0  0  0  0  0  0  0  0  0  0
  1  2  2  3
  1  3  1  0
  2  4  1  0
  4  5  1  0
  5  6  1  0
M  END
>  <name>  (6) 
Car Nac Nd0 Car Car Car

>  <indices>  (6) 
[0, 1, 2]

>  <dummy>  (6) 
2

>  <tasks>  (6) 
probe_placing close_aromatic_ring close_aromatic_ring

>  <current_task>  (6) 
close_aromatic_ring

>  <prot_clashes>  (6) 
0

>  <NBS phar>  (6) 
0.2

>  <NBS_non-phar>  (6) 
0.8961941719055175

>  <NBS>  (6) 
1.0961941719055175

>  <source_stage>  (6) 
scored

>  <source_iter>  (6) 
2

>  <source_parent_mol>  (6) 
0

>  <source_scenario>  (6) 
1 0

>  <source_rank_in_scored_call>  (6) 
0

>  <source_current_task>  (6) 
close_aromatic_ring

>  <scenario>  (6) 
1 0

>  <rotatable_bond_torsions>  (6) 
0,1,3,4

>  <reason_to_skip>  (6) 
incorrect arom ring closing

$$$$

     RDKit          3D

  6  5  0  0  0  0  0  0  0  0999 V2000
  -27.8640   -7.4760  -31.1990 C   0  0  0  0  0  0  0  0  0  0  0  0
  -27.5380   -6.7190  -32.2850 N   0  0  0  0  0  0  0  0  0  0  0  0
  -27.6840   -8.8650  -31.2620 N   0  0  0  0  0  0  0  0  0  0  0  0
  -27.8024   -5.3830  -31.8813 C   0  0  0  0  0  0  0  0  0  0  0  0
  -28.2578   -4.8905  -30.7215 C   0  0  0  0  0  0  0  0  0  0  0  0
  -28.0667   -5.6582  -29.5129 C   0  0  0  0  0  0  0  0  0  0  0  0
  1  2  2  3
  1  3  1  0
  2  4  1  0
  4  5  1  0
  5  6  2  0
M  END
>  <name>  (7) 
Car Nac Nd0 Car Car Car

>  <indices>  (7) 
[0, 1, 2]

>  <dummy>  (7) 
2

>  <tasks>  (7) 
probe_placing close_aromatic_ring close_aromatic_ring

>  <current_task>  (7) 
close_aromatic_ring

>  <prot_clashes>  (7) 
0

>  <NBS phar>  (7) 
0.2

>  <NBS_non-phar>  (7) 
0.8961941719055175

>  <NBS>  (7) 
1.0961941719055175

>  <source_stage>  (7) 
scored

>  <source_iter>  (7) 
2

>  <source_parent_mol>  (7) 
0

>  <source_scenario>  (7) 
1 0

>  <source_rank_in_scored_call>  (7) 
0

>  <source_current_task>  (7) 
close_aromatic_ring

>  <scenario>  (7) 
1 0

>  <rotatable_bond_torsions>  (7) 
0,1,3,4

>  <reason_to_skip>  (7) 
incorrect arom ring closing

$$$$

     RDKit          3D

  6  5  0  0  0  0  0  0  0  0999 V2000
  -27.8640   -7.4760  -31.1990 C   0  0  0  0  0  0  0  0  0  0  0  0
  -27.5380   -6.7190  -32.2850 N   0  0  0  0  0  0  0  0  0  0  0  0
  -27.6840   -8.8650  -31.2620 N   0  0  0  0  0  0  0  0  0  0  0  0
  -27.8024   -5.3830  -31.8813 C   0  0  0  0  0  0  0  0  0  0  0  0
  -28.2578   -4.8905  -30.7215 C   0  0  0  0  0  0  0  0  0  0  0  0
  -29.0724   -3.7529  -30.6112 C   0  0  0  0  0  0  0  0  0  0  0  0
  1  2  2  3
  1  3  1  0
  2  4  1  0
  4  5  1  0
  5  6  1  0
M  END
>  <name>  (8) 
Car Nac Nd0 Car Car Car

>  <indices>  (8) 
[0, 1, 2]

>  <dummy>  (8) 
2

>  <tasks>  (8) 
probe_placing close_aromatic_ring close_aromatic_ring

>  <current_task>  (8) 
close_aromatic_ring

>  <prot_clashes>  (8) 
0

>  <NBS phar>  (8) 
0.2

>  <NBS_non-phar>  (8) 
0.8961941719055175

>  <NBS>  (8) 
1.0961941719055175

>  <source_stage>  (8) 
scored

>  <source_iter>  (8) 
2

>  <source_parent_mol>  (8) 
0

>  <source_scenario>  (8) 
1 0

>  <source_rank_in_scored_call>  (8) 
0

>  <source_current_task>  (8) 
close_aromatic_ring

>  <scenario>  (8) 
1 0

>  <rotatable_bond_torsions>  (8) 
0,1,3,4

>  <reason_to_skip>  (8) 
incorrect arom ring closing

$$$$

     RDKit          3D

  6  5  0  0  0  0  0  0  0  0999 V2000
  -27.8640   -7.4760  -31.1990 C   0  0  0  0  0  0  0  0  0  0  0  0
  -27.5380   -6.7190  -32.2850 N   0  0  0  0  0  0  0  0  0  0  0  0
  -27.6840   -8.8650  -31.2620 N   0  0  0  0  0  0  0  0  0  0  0  0
  -27.8024   -5.3830  -31.8813 C   0  0  0  0  0  0  0  0  0  0  0  0
  -28.2578   -4.8905  -30.7215 C   0  0  0  0  0  0  0  0  0  0  0  0
  -28.5244   -3.8147  -30.1494 N   0  0  0  0  0  0  0  0  0  0  0  0
  1  2  2  3
  1  3  1  0
  2  4  1  0
  4  5  1  0
  5  6  1  0
M  END
>  <name>  (9) 
Car Nac Nd0 Car Car Nd0

>  <indices>  (9) 
[0, 1, 2]

>  <dummy>  (9) 
2

>  <tasks>  (9) 
probe_placing close_aromatic_ring close_aromatic_ring

>  <current_task>  (9) 
close_aromatic_ring

>  <prot_clashes>  (9) 
0

>  <NBS phar>  (9) 
0.2

>  <NBS_non-phar>  (9) 
0.8961941719055175

>  <NBS>  (9) 
1.0961941719055175

>  <source_stage>  (9) 
scored

>  <source_iter>  (9) 
2

>  <source_parent_mol>  (9) 
0

>  <source_scenario>  (9) 
1 0

>  <source_rank_in_scored_call>  (9) 
0

>  <source_current_task>  (9) 
close_aromatic_ring

>  <scenario>  (9) 
1 0

>  <rotatable_bond_torsions>  (9) 
0,1,3,4

>  <reason_to_skip>  (9) 
bad angles

$$$$

     RDKit          3D

  6  5  0  0  0  0  0  0  0  0999 V2000
  -27.8640   -7.4760  -31.1990 C   0  0  0  0  0  0  0  0  0  0  0  0
  -27.5380   -6.7190  -32.2850 N   0  0  0  0  0  0  0  0  0  0  0  0
  -27.6840   -8.8650  -31.2620 N   0  0  0  0  0  0  0  0  0  0  0  0
  -27.8024   -5.3830  -31.8813 C   0  0  0  0  0  0  0  0  0  0  0  0
  -28.2578   -4.8905  -30.7215 C   0  0  0  0  0  0  0  0  0  0  0  0
  -28.3448   -6.2495  -30.1087 N   0  0  0  0  0  0  0  0  0  0  0  0
  1  2  2  3
  1  3  1  0
  2  4  1  0
  4  5  1  0
  5  6  1  0
M  END
>  <name>  (10) 
Car Nac Nd0 Car Car Nac

>  <indices>  (10) 
[0, 1, 2]

>  <dummy>  (10) 
2

>  <tasks>  (10) 
probe_placing close_aromatic_ring close_aromatic_ring

>  <current_task>  (10) 
close_aromatic_ring

>  <prot_clashes>  (10) 
0

>  <NBS phar>  (10) 
0.2

>  <NBS_non-phar>  (10) 
0.8961941719055175

>  <NBS>  (10) 
1.0961941719055175

>  <source_stage>  (10) 
scored

>  <source_iter>  (10) 
2

>  <source_parent_mol>  (10) 
0

>  <source_scenario>  (10) 
1 0

>  <source_rank_in_scored_call>  (10) 
0

>  <source_current_task>  (10) 
close_aromatic_ring

>  <scenario>  (10) 
1 0

>  <rotatable_bond_torsions>  (10) 
0,1,3,4

>  <reason_to_skip>  (10) 
bad angles

$$$$

     RDKit          3D

  6  5  0  0  0  0  0  0  0  0999 V2000
  -27.8640   -7.4760  -31.1990 C   0  0  0  0  0  0  0  0  0  0  0  0
  -27.5380   -6.7190  -32.2850 N   0  0  0  0  0  0  0  0  0  0  0  0
  -27.6840   -8.8650  -31.2620 N   0  0  0  0  0  0  0  0  0  0  0  0
  -27.8024   -5.3830  -31.8813 C   0  0  0  0  0  0  0  0  0  0  0  0
  -28.2578   -4.8905  -30.7215 C   0  0  0  0  0  0  0  0  0  0  0  0
  -28.3943   -3.5664  -30.6231 N   0  0  0  0  0  0  0  0  0  0  0  0
  1  2  2  3
  1  3  1  0
  2  4  1  0
  4  5  1  0
  5  6  2  0
M  END
>  <name>  (11) 
Car Nac Nd0 Car Car Nac

>  <indices>  (11) 
[0, 1, 2]

>  <dummy>  (11) 
2

>  <tasks>  (11) 
probe_placing close_aromatic_ring close_aromatic_ring

>  <current_task>  (11) 
close_aromatic_ring

>  <prot_clashes>  (11) 
0

>  <NBS phar>  (11) 
0.2

>  <NBS_non-phar>  (11) 
0.8961941719055175

>  <NBS>  (11) 
1.0961941719055175

>  <source_stage>  (11) 
scored

>  <source_iter>  (11) 
2

>  <source_parent_mol>  (11) 
0

>  <source_scenario>  (11) 
1 0

>  <source_rank_in_scored_call>  (11) 
0

>  <source_current_task>  (11) 
close_aromatic_ring

>  <scenario>  (11) 
1 0

>  <rotatable_bond_torsions>  (11) 
0,1,3,4

>  <reason_to_skip>  (11) 
incorrect arom ring closing

$$$$

     RDKit          3D

  6  5  0  0  0  0  0  0  0  0999 V2000
  -27.8640   -7.4760  -31.1990 C   0  0  0  0  0  0  0  0  0  0  0  0
  -27.5380   -6.7190  -32.2850 N   0  0  0  0  0  0  0  0  0  0  0  0
  -27.6840   -8.8650  -31.2620 N   0  0  0  0  0  0  0  0  0  0  0  0
  -27.8024   -5.3830  -31.8813 C   0  0  0  0  0  0  0  0  0  0  0  0
  -28.2578   -4.8905  -30.7215 C   0  0  0  0  0  0  0  0  0  0  0  0
  -28.5237   -5.9341  -29.7617 N   0  0  0  0  0  0  0  0  0  0  0  0
  1  2  2  3
  1  3  1  0
  2  4  1  0
  4  5  1  0
  5  6  1  0
M  END
>  <name>  (12) 
Car Nac Nd0 Car Car Nac

>  <indices>  (12) 
[0, 1, 2]

>  <dummy>  (12) 
2

>  <tasks>  (12) 
probe_placing close_aromatic_ring close_aromatic_ring

>  <current_task>  (12) 
close_aromatic_ring

>  <prot_clashes>  (12) 
0

>  <NBS phar>  (12) 
0.2

>  <NBS_non-phar>  (12) 
0.8961941719055175

>  <NBS>  (12) 
1.0961941719055175

>  <source_stage>  (12) 
scored

>  <source_iter>  (12) 
2

>  <source_parent_mol>  (12) 
0

>  <source_scenario>  (12) 
1 0

>  <source_rank_in_scored_call>  (12) 
0

>  <source_current_task>  (12) 
close_aromatic_ring

>  <scenario>  (12) 
1 0

>  <rotatable_bond_torsions>  (12) 
0,1,3,4

>  <reason_to_skip>  (12) 
incorrect arom ring closing

$$$$

     RDKit          3D

  6  5  0  0  0  0  0  0  0  0999 V2000
  -27.8640   -7.4760  -31.1990 C   0  0  0  0  0  0  0  0  0  0  0  0
  -27.5380   -6.7190  -32.2850 N   0  0  0  0  0  0  0  0  0  0  0  0
  -27.6840   -8.8650  -31.2620 N   0  0  0  0  0  0  0  0  0  0  0  0
  -27.8024   -5.3830  -31.8813 C   0  0  0  0  0  0  0  0  0  0  0  0
  -28.2578   -4.8905  -30.7215 C   0  0  0  0  0  0  0  0  0  0  0  0
  -28.4892   -3.5925  -30.4334 C   0  0  0  0  0  0  0  0  0  0  0  0
  1  2  2  3
  1  3  1  0
  2  4  1  0
  4  5  1  0
  5  6  2  0
M  END
>  <name>  (13) 
Car Nac Nd0 Car Car Car

>  <indices>  (13) 
[0, 1, 2]

>  <dummy>  (13) 
2

>  <tasks>  (13) 
probe_placing close_aromatic_ring close_aromatic_ring

>  <current_task>  (13) 
close_aromatic_ring

>  <prot_clashes>  (13) 
0

>  <NBS phar>  (13) 
0.2

>  <NBS_non-phar>  (13) 
0.8961941719055175

>  <NBS>  (13) 
1.0961941719055175

>  <source_stage>  (13) 
scored

>  <source_iter>  (13) 
2

>  <source_parent_mol>  (13) 
0

>  <source_scenario>  (13) 
1 0

>  <source_rank_in_scored_call>  (13) 
0

>  <source_current_task>  (13) 
close_aromatic_ring

>  <scenario>  (13) 
1 0

>  <rotatable_bond_torsions>  (13) 
0,1,3,4

>  <reason_to_skip>  (13) 
incorrect arom ring closing

$$$$

     RDKit          3D

  6  5  0  0  0  0  0  0  0  0999 V2000
  -27.8640   -7.4760  -31.1990 C   0  0  0  0  0  0  0  0  0  0  0  0
  -27.5380   -6.7190  -32.2850 N   0  0  0  0  0  0  0  0  0  0  0  0
  -27.6840   -8.8650  -31.2620 N   0  0  0  0  0  0  0  0  0  0  0  0
  -27.8024   -5.3830  -31.8813 C   0  0  0  0  0  0  0  0  0  0  0  0
  -28.2578   -4.8905  -30.7215 C   0  0  0  0  0  0  0  0  0  0  0  0
  -28.5110   -5.9241  -29.7424 C   0  0  0  0  0  0  0  0  0  0  0  0
  1  2  2  3
  1  3  1  0
  2  4  1  0
  4  5  1  0
  5  6  1  0
M  END
>  <name>  (14) 
Car Nac Nd0 Car Car Car

>  <indices>  (14) 
[0, 1, 2]

>  <dummy>  (14) 
2

>  <tasks>  (14) 
probe_placing close_aromatic_ring close_aromatic_ring

>  <current_task>  (14) 
close_aromatic_ring

>  <prot_clashes>  (14) 
0

>  <NBS phar>  (14) 
0.2

>  <NBS_non-phar>  (14) 
0.8961941719055175

>  <NBS>  (14) 
1.0961941719055175

>  <source_stage>  (14) 
scored

>  <source_iter>  (14) 
2

>  <source_parent_mol>  (14) 
0

>  <source_scenario>  (14) 
1 0

>  <source_rank_in_scored_call>  (14) 
0

>  <source_current_task>  (14) 
close_aromatic_ring

>  <scenario>  (14) 
1 0

>  <rotatable_bond_torsions>  (14) 
0,1,3,4

>  <reason_to_skip>  (14) 
incorrect arom ring closing

$$$$

     RDKit          3D

  6  5  0  0  0  0  0  0  0  0999 V2000
  -27.8640   -7.4760  -31.1990 C   0  0  0  0  0  0  0  0  0  0  0  0
  -27.5380   -6.7190  -32.2850 N   0  0  0  0  0  0  0  0  0  0  0  0
  -27.6840   -8.8650  -31.2620 N   0  0  0  0  0  0  0  0  0  0  0  0
  -27.8024   -5.3830  -31.8813 C   0  0  0  0  0  0  0  0  0  0  0  0
  -28.2578   -4.8905  -30.7215 C   0  0  0  0  0  0  0  0  0  0  0  0
  -28.3877   -6.2010  -30.0540 N   0  0  0  0  0  0  0  0  0  0  0  0
  1  2  2  3
  1  3  1  0
  2  4  1  0
  4  5  1  0
  5  6  1  0
M  END
>  <name>  (15) 
Car Nac Nd0 Car Car Nd0

>  <indices>  (15) 
[0, 1, 2]

>  <dummy>  (15) 
2

>  <tasks>  (15) 
probe_placing close_aromatic_ring close_aromatic_ring

>  <current_task>  (15) 
close_aromatic_ring

>  <prot_clashes>  (15) 
0

>  <NBS phar>  (15) 
0.2

>  <NBS_non-phar>  (15) 
0.8961941719055175

>  <NBS>  (15) 
1.0961941719055175

>  <source_stage>  (15) 
scored

>  <source_iter>  (15) 
2

>  <source_parent_mol>  (15) 
0

>  <source_scenario>  (15) 
1 0

>  <source_rank_in_scored_call>  (15) 
0

>  <source_current_task>  (15) 
close_aromatic_ring

>  <scenario>  (15) 
1 0

>  <rotatable_bond_torsions>  (15) 
0,1,3,4

>  <reason_to_skip>  (15) 
bad angles

$$$$

     RDKit          3D

  6  5  0  0  0  0  0  0  0  0999 V2000
  -27.8640   -7.4760  -31.1990 C   0  0  0  0  0  0  0  0  0  0  0  0
  -27.5380   -6.7190  -32.2850 N   0  0  0  0  0  0  0  0  0  0  0  0
  -27.6840   -8.8650  -31.2620 N   0  0  0  0  0  0  0  0  0  0  0  0
  -27.8024   -5.3830  -31.8813 C   0  0  0  0  0  0  0  0  0  0  0  0
  -28.2578   -4.8905  -30.7215 C   0  0  0  0  0  0  0  0  0  0  0  0
    0.0000    0.0000    0.0000 O   0  0  0  0  0  0  0  0  0  0  0  0
  1  2  2  3
  1  3  1  0
  2  4  1  0
  4  5  1  0
  5  6  1  0
M  END
>  <name>  (16) 
Car Nac Nd0 Car Car O_a

>  <indices>  (16) 
[0, 1, 2]

>  <dummy>  (16) 
2

>  <tasks>  (16) 
probe_placing close_aromatic_ring close_aromatic_ring

>  <current_task>  (16) 
close_aromatic_ring

>  <prot_clashes>  (16) 
0

>  <NBS phar>  (16) 
0.2

>  <NBS_non-phar>  (16) 
0.8961941719055175

>  <NBS>  (16) 
1.0961941719055175

>  <source_stage>  (16) 
scored

>  <source_iter>  (16) 
2

>  <source_parent_mol>  (16) 
0

>  <source_scenario>  (16) 
1 0

>  <source_rank_in_scored_call>  (16) 
0

>  <source_current_task>  (16) 
close_aromatic_ring

>  <scenario>  (16) 
1 0

>  <rotatable_bond_torsions>  (16) 
0,1,3,4

>  <reason_to_skip>  (16) 
some_atom_counter_exceeded

$$$$

     RDKit          3D

  6  5  0  0  0  0  0  0  0  0999 V2000
  -27.8640   -7.4760  -31.1990 C   0  0  0  0  0  0  0  0  0  0  0  0
  -27.5380   -6.7190  -32.2850 N   0  0  0  0  0  0  0  0  0  0  0  0
  -27.6840   -8.8650  -31.2620 N   0  0  0  0  0  0  0  0  0  0  0  0
  -27.8024   -5.3830  -31.8813 C   0  0  0  0  0  0  0  0  0  0  0  0
  -28.2578   -4.8905  -30.7215 C   0  0  0  0  0  0  0  0  0  0  0  0
  -28.3858   -6.2537  -30.0993 C   0  0  0  0  0  0  0  0  0  0  0  0
  1  2  2  3
  1  3  1  0
  2  4  1  0
  4  5  1  0
  5  6  1  0
M  END
>  <name>  (17) 
Car Nac Nd0 Car Car Car

>  <indices>  (17) 
[0, 1, 2]

>  <dummy>  (17) 
2

>  <tasks>  (17) 
probe_placing close_aromatic_ring close_aromatic_ring

>  <current_task>  (17) 
close_aromatic_ring

>  <prot_clashes>  (17) 
0

>  <NBS phar>  (17) 
0.2

>  <NBS_non-phar>  (17) 
0.8961941719055175

>  <NBS>  (17) 
1.0961941719055175

>  <source_stage>  (17) 
scored

>  <source_iter>  (17) 
2

>  <source_parent_mol>  (17) 
0

>  <source_scenario>  (17) 
1 0

>  <source_rank_in_scored_call>  (17) 
0

>  <source_current_task>  (17) 
close_aromatic_ring

>  <scenario>  (17) 
1 0

>  <rotatable_bond_torsions>  (17) 
0,1,3,4

>  <reason_to_skip>  (17) 
bad angles

$$$$

     RDKit          3D

  6  5  0  0  0  0  0  0  0  0999 V2000
  -27.8640   -7.4760  -31.1990 C   0  0  0  0  0  0  0  0  0  0  0  0
  -27.5380   -6.7190  -32.2850 N   0  0  0  0  0  0  0  0  0  0  0  0
  -27.6840   -8.8650  -31.2620 N   0  0  0  0  0  0  0  0  0  0  0  0
  -27.8024   -5.3830  -31.8813 C   0  0  0  0  0  0  0  0  0  0  0  0
  -28.2578   -4.8905  -30.7215 C   0  0  0  0  0  0  0  0  0  0  0  0
    0.0000    0.0000    0.0000 S   0  0  0  0  0  0  0  0  0  0  0  0
  1  2  2  3
  1  3  1  0
  2  4  1  0
  4  5  1  0
  5  6  1  0
M  END
>  <name>  (18) 
Car Nac Nd0 Car Car Sul

>  <indices>  (18) 
[0, 1, 2]

>  <dummy>  (18) 
2

>  <tasks>  (18) 
probe_placing close_aromatic_ring close_aromatic_ring

>  <current_task>  (18) 
close_aromatic_ring

>  <prot_clashes>  (18) 
0

>  <NBS phar>  (18) 
0.2

>  <NBS_non-phar>  (18) 
0.8961941719055175

>  <NBS>  (18) 
1.0961941719055175

>  <source_stage>  (18) 
scored

>  <source_iter>  (18) 
2

>  <source_parent_mol>  (18) 
0

>  <source_scenario>  (18) 
1 0

>  <source_rank_in_scored_call>  (18) 
0

>  <source_current_task>  (18) 
close_aromatic_ring

>  <scenario>  (18) 
1 0

>  <rotatable_bond_torsions>  (18) 
0,1,3,4

>  <reason_to_skip>  (18) 
some_atom_counter_exceeded

$$$$

     RDKit          3D

  6  5  0  0  0  0  0  0  0  0999 V2000
  -27.8640   -7.4760  -31.1990 C   0  0  0  0  0  0  0  0  0  0  0  0
  -27.5380   -6.7190  -32.2850 N   0  0  0  0  0  0  0  0  0  0  0  0
  -27.6840   -8.8650  -31.2620 N   0  0  0  0  0  0  0  0  0  0  0  0
  -27.8024   -5.3830  -31.8813 C   0  0  0  0  0  0  0  0  0  0  0  0
  -28.2578   -4.8905  -30.7215 C   0  0  0  0  0  0  0  0  0  0  0  0
  -27.5653   -4.1656  -29.7136 C   0  0  0  0  0  0  0  0  0  0  0  0
  1  2  2  3
  1  3  1  0
  2  4  1  0
  4  5  1  0
  5  6  1  0
M  END
>  <name>  (19) 
Car Nac Nd0 Car Car Car

>  <indices>  (19) 
[0, 1, 2]

>  <dummy>  (19) 
2

>  <tasks>  (19) 
probe_placing close_aromatic_ring close_aromatic_ring

>  <current_task>  (19) 
close_aromatic_ring

>  <prot_clashes>  (19) 
0

>  <NBS phar>  (19) 
0.2

>  <NBS_non-phar>  (19) 
0.8961941719055175

>  <NBS>  (19) 
1.0961941719055175

>  <source_stage>  (19) 
scored

>  <source_iter>  (19) 
2

>  <source_parent_mol>  (19) 
0

>  <source_scenario>  (19) 
1 0

>  <source_rank_in_scored_call>  (19) 
0

>  <source_current_task>  (19) 
close_aromatic_ring

>  <scenario>  (19) 
1 0

>  <rotatable_bond_torsions>  (19) 
0,1,3,4

>  <reason_to_skip>  (19) 
incorrect arom ring closing

$$$$

     RDKit          3D

  6  5  0  0  0  0  0  0  0  0999 V2000
  -27.8640   -7.4760  -31.1990 C   0  0  0  0  0  0  0  0  0  0  0  0
  -27.5380   -6.7190  -32.2850 N   0  0  0  0  0  0  0  0  0  0  0  0
  -27.6840   -8.8650  -31.2620 N   0  0  0  0  0  0  0  0  0  0  0  0
  -27.8024   -5.3830  -31.8813 C   0  0  0  0  0  0  0  0  0  0  0  0
  -28.2578   -4.8905  -30.7215 C   0  0  0  0  0  0  0  0  0  0  0  0
  -29.5920   -5.0980  -30.0932 C   0  0  0  0  0  0  0  0  0  0  0  0
  1  2  2  3
  1  3  1  0
  2  4  1  0
  4  5  1  0
  5  6  2  0
M  END
>  <name>  (20) 
Car Nac Nd0 Car Car Car

>  <indices>  (20) 
[0, 1, 2]

>  <dummy>  (20) 
2

>  <tasks>  (20) 
probe_placing close_aromatic_ring close_aromatic_ring

>  <current_task>  (20) 
close_aromatic_ring

>  <prot_clashes>  (20) 
0

>  <NBS phar>  (20) 
0.2

>  <NBS_non-phar>  (20) 
0.8961941719055175

>  <NBS>  (20) 
1.0961941719055175

>  <source_stage>  (20) 
scored

>  <source_iter>  (20) 
2

>  <source_parent_mol>  (20) 
0

>  <source_scenario>  (20) 
1 0

>  <source_rank_in_scored_call>  (20) 
0

>  <source_current_task>  (20) 
close_aromatic_ring

>  <scenario>  (20) 
1 0

>  <rotatable_bond_torsions>  (20) 
0,1,3,4

>  <reason_to_skip>  (20) 
incorrect arom ring closing

$$$$

     RDKit          3D

  6  5  0  0  0  0  0  0  0  0999 V2000
  -27.8640   -7.4760  -31.1990 C   0  0  0  0  0  0  0  0  0  0  0  0
  -27.5380   -6.7190  -32.2850 N   0  0  0  0  0  0  0  0  0  0  0  0
  -27.6840   -8.8650  -31.2620 N   0  0  0  0  0  0  0  0  0  0  0  0
  -27.8024   -5.3830  -31.8813 C   0  0  0  0  0  0  0  0  0  0  0  0
  -28.2578   -4.8905  -30.7215 C   0  0  0  0  0  0  0  0  0  0  0  0
  -29.5553   -5.0735  -30.1528 C   0  0  0  0  0  0  0  0  0  0  0  0
  1  2  2  3
  1  3  1  0
  2  4  1  0
  4  5  1  0
  5  6  1  0
M  END
>  <name>  (21) 
Car Nac Nd0 Car Car Car

>  <indices>  (21) 
[0, 1, 2]

>  <dummy>  (21) 
2

>  <tasks>  (21) 
probe_placing close_aromatic_ring close_aromatic_ring

>  <current_task>  (21) 
close_aromatic_ring

>  <prot_clashes>  (21) 
0

>  <NBS phar>  (21) 
0.2

>  <NBS_non-phar>  (21) 
0.8961941719055175

>  <NBS>  (21) 
1.0961941719055175

>  <source_stage>  (21) 
scored

>  <source_iter>  (21) 
2

>  <source_parent_mol>  (21) 
0

>  <source_scenario>  (21) 
1 0

>  <source_rank_in_scored_call>  (21) 
0

>  <source_current_task>  (21) 
close_aromatic_ring

>  <scenario>  (21) 
1 0

>  <rotatable_bond_torsions>  (21) 
0,1,3,4

>  <reason_to_skip>  (21) 
incorrect arom ring closing

$$$$

     RDKit          3D

  6  5  0  0  0  0  0  0  0  0999 V2000
  -27.8640   -7.4760  -31.1990 C   0  0  0  0  0  0  0  0  0  0  0  0
  -27.5380   -6.7190  -32.2850 N   0  0  0  0  0  0  0  0  0  0  0  0
  -27.6840   -8.8650  -31.2620 N   0  0  0  0  0  0  0  0  0  0  0  0
  -27.8024   -5.3830  -31.8813 C   0  0  0  0  0  0  0  0  0  0  0  0
  -28.2578   -4.8905  -30.7215 C   0  0  0  0  0  0  0  0  0  0  0  0
  -27.5651   -4.0980  -29.6952 C   0  0  0  0  0  0  0  0  0  0  0  0
  1  2  2  3
  1  3  1  0
  2  4  1  0
  4  5  1  0
  5  6  2  0
M  END
>  <name>  (22) 
Car Nac Nd0 Car Car Car

>  <indices>  (22) 
[0, 1, 2]

>  <dummy>  (22) 
2

>  <tasks>  (22) 
probe_placing close_aromatic_ring close_aromatic_ring

>  <current_task>  (22) 
close_aromatic_ring

>  <prot_clashes>  (22) 
0

>  <NBS phar>  (22) 
0.2

>  <NBS_non-phar>  (22) 
0.8961941719055175

>  <NBS>  (22) 
1.0961941719055175

>  <source_stage>  (22) 
scored

>  <source_iter>  (22) 
2

>  <source_parent_mol>  (22) 
0

>  <source_scenario>  (22) 
1 0

>  <source_rank_in_scored_call>  (22) 
0

>  <source_current_task>  (22) 
close_aromatic_ring

>  <scenario>  (22) 
1 0

>  <rotatable_bond_torsions>  (22) 
0,1,3,4

>  <reason_to_skip>  (22) 
incorrect arom ring closing

$$$$

     RDKit          3D

  6  5  0  0  0  0  0  0  0  0999 V2000
  -27.8640   -7.4760  -31.1990 C   0  0  0  0  0  0  0  0  0  0  0  0
  -27.5380   -6.7190  -32.2850 N   0  0  0  0  0  0  0  0  0  0  0  0
  -27.6840   -8.8650  -31.2620 N   0  0  0  0  0  0  0  0  0  0  0  0
  -27.8024   -5.3830  -31.8813 C   0  0  0  0  0  0  0  0  0  0  0  0
  -28.2578   -4.8905  -30.7215 C   0  0  0  0  0  0  0  0  0  0  0  0
    0.0000    0.0000    0.0000 O   0  0  0  0  0  0  0  0  0  0  0  0
  1  2  2  3
  1  3  1  0
  2  4  1  0
  4  5  1  0
  5  6  1  0
M  END
>  <name>  (23) 
Car Nac Nd0 Car Car O_a

>  <indices>  (23) 
[0, 1, 2]

>  <dummy>  (23) 
2

>  <tasks>  (23) 
probe_placing close_aromatic_ring close_aromatic_ring

>  <current_task>  (23) 
close_aromatic_ring

>  <prot_clashes>  (23) 
0

>  <NBS phar>  (23) 
0.2

>  <NBS_non-phar>  (23) 
0.8961941719055175

>  <NBS>  (23) 
1.0961941719055175

>  <source_stage>  (23) 
scored

>  <source_iter>  (23) 
2

>  <source_parent_mol>  (23) 
0

>  <source_scenario>  (23) 
1 0

>  <source_rank_in_scored_call>  (23) 
0

>  <source_current_task>  (23) 
close_aromatic_ring

>  <scenario>  (23) 
1 0

>  <rotatable_bond_torsions>  (23) 
0,1,3,4

>  <reason_to_skip>  (23) 
some_atom_counter_exceeded

$$$$

     RDKit          3D

  6  5  0  0  0  0  0  0  0  0999 V2000
  -27.8640   -7.4760  -31.1990 C   0  0  0  0  0  0  0  0  0  0  0  0
  -27.5380   -6.7190  -32.2850 N   0  0  0  0  0  0  0  0  0  0  0  0
  -27.6840   -8.8650  -31.2620 N   0  0  0  0  0  0  0  0  0  0  0  0
  -27.8024   -5.3830  -31.8813 C   0  0  0  0  0  0  0  0  0  0  0  0
  -28.2578   -4.8905  -30.7215 C   0  0  0  0  0  0  0  0  0  0  0  0
  -28.5626   -3.7439  -30.1889 N   0  0  0  0  0  0  0  0  0  0  0  0
  1  2  2  3
  1  3  1  0
  2  4  1  0
  4  5  1  0
  5  6  1  0
M  END
>  <name>  (24) 
Car Nac Nd0 Car Car Nd0

>  <indices>  (24) 
[0, 1, 2]

>  <dummy>  (24) 
2

>  <tasks>  (24) 
probe_placing close_aromatic_ring close_aromatic_ring

>  <current_task>  (24) 
close_aromatic_ring

>  <prot_clashes>  (24) 
0

>  <NBS phar>  (24) 
0.2

>  <NBS_non-phar>  (24) 
0.8961941719055175

>  <NBS>  (24) 
1.0961941719055175

>  <source_stage>  (24) 
scored

>  <source_iter>  (24) 
2

>  <source_parent_mol>  (24) 
0

>  <source_scenario>  (24) 
1 0

>  <source_rank_in_scored_call>  (24) 
0

>  <source_current_task>  (24) 
close_aromatic_ring

>  <scenario>  (24) 
1 0

>  <rotatable_bond_torsions>  (24) 
0,1,3,4

>  <reason_to_skip>  (24) 
bad angles

$$$$

     RDKit          3D

  6  5  0  0  0  0  0  0  0  0999 V2000
  -27.8640   -7.4760  -31.1990 C   0  0  0  0  0  0  0  0  0  0  0  0
  -27.5380   -6.7190  -32.2850 N   0  0  0  0  0  0  0  0  0  0  0  0
  -27.6840   -8.8650  -31.2620 N   0  0  0  0  0  0  0  0  0  0  0  0
  -27.8024   -5.3830  -31.8813 C   0  0  0  0  0  0  0  0  0  0  0  0
  -28.2578   -4.8905  -30.7215 C   0  0  0  0  0  0  0  0  0  0  0  0
  -27.9908   -3.6850  -30.1685 C   0  0  0  0  0  0  0  0  0  0  0  0
  1  2  2  3
  1  3  1  0
  2  4  1  0
  4  5  1  0
  5  6  1  0
M  END
>  <name>  (25) 
Car Nac Nd0 Car Car Car

>  <indices>  (25) 
[0, 1, 2]

>  <dummy>  (25) 
2

>  <tasks>  (25) 
probe_placing close_aromatic_ring close_aromatic_ring

>  <current_task>  (25) 
close_aromatic_ring

>  <prot_clashes>  (25) 
0

>  <NBS phar>  (25) 
0.2

>  <NBS_non-phar>  (25) 
0.8961941719055175

>  <NBS>  (25) 
1.0961941719055175

>  <source_stage>  (25) 
scored

>  <source_iter>  (25) 
2

>  <source_parent_mol>  (25) 
0

>  <source_scenario>  (25) 
1 0

>  <source_rank_in_scored_call>  (25) 
0

>  <source_current_task>  (25) 
close_aromatic_ring

>  <scenario>  (25) 
1 0

>  <rotatable_bond_torsions>  (25) 
0,1,3,4

>  <reason_to_skip>  (25) 
incorrect arom ring closing

$$$$

     RDKit          3D

  6  5  0  0  0  0  0  0  0  0999 V2000
  -27.8640   -7.4760  -31.1990 C   0  0  0  0  0  0  0  0  0  0  0  0
  -27.5380   -6.7190  -32.2850 N   0  0  0  0  0  0  0  0  0  0  0  0
  -27.6840   -8.8650  -31.2620 N   0  0  0  0  0  0  0  0  0  0  0  0
  -27.8024   -5.3830  -31.8813 C   0  0  0  0  0  0  0  0  0  0  0  0
  -28.2578   -4.8905  -30.7215 C   0  0  0  0  0  0  0  0  0  0  0  0
    0.0000    0.0000    0.0000 O   0  0  0  0  0  0  0  0  0  0  0  0
  1  2  2  3
  1  3  1  0
  2  4  1  0
  4  5  1  0
  5  6  1  0
M  END
>  <name>  (26) 
Car Nac Nd0 Car Car O_a

>  <indices>  (26) 
[0, 1, 2]

>  <dummy>  (26) 
2

>  <tasks>  (26) 
probe_placing close_aromatic_ring close_aromatic_ring

>  <current_task>  (26) 
close_aromatic_ring

>  <prot_clashes>  (26) 
0

>  <NBS phar>  (26) 
0.2

>  <NBS_non-phar>  (26) 
0.8961941719055175

>  <NBS>  (26) 
1.0961941719055175

>  <source_stage>  (26) 
scored

>  <source_iter>  (26) 
2

>  <source_parent_mol>  (26) 
0

>  <source_scenario>  (26) 
1 0

>  <source_rank_in_scored_call>  (26) 
0

>  <source_current_task>  (26) 
close_aromatic_ring

>  <scenario>  (26) 
1 0

>  <rotatable_bond_torsions>  (26) 
0,1,3,4

>  <reason_to_skip>  (26) 
some_atom_counter_exceeded

$$$$

     RDKit          3D

  6  5  0  0  0  0  0  0  0  0999 V2000
  -27.8640   -7.4760  -31.1990 C   0  0  0  0  0  0  0  0  0  0  0  0
  -27.5380   -6.7190  -32.2850 N   0  0  0  0  0  0  0  0  0  0  0  0
  -27.6840   -8.8650  -31.2620 N   0  0  0  0  0  0  0  0  0  0  0  0
  -27.8024   -5.3830  -31.8813 C   0  0  0  0  0  0  0  0  0  0  0  0
  -28.2578   -4.8905  -30.7215 C   0  0  0  0  0  0  0  0  0  0  0  0
  -28.4597   -3.6287  -30.4391 N   0  0  0  0  0  0  0  0  0  0  0  0
  1  2  2  3
  1  3  1  0
  2  4  1  0
  4  5  1  0
  5  6  1  0
M  END
>  <name>  (27) 
Car Nac Nd0 Car Car Nd0

>  <indices>  (27) 
[0, 1, 2]

>  <dummy>  (27) 
2

>  <tasks>  (27) 
probe_placing close_aromatic_ring close_aromatic_ring

>  <current_task>  (27) 
close_aromatic_ring

>  <prot_clashes>  (27) 
0

>  <NBS phar>  (27) 
0.2

>  <NBS_non-phar>  (27) 
0.8961941719055175

>  <NBS>  (27) 
1.0961941719055175

>  <source_stage>  (27) 
scored

>  <source_iter>  (27) 
2

>  <source_parent_mol>  (27) 
0

>  <source_scenario>  (27) 
1 0

>  <source_rank_in_scored_call>  (27) 
0

>  <source_current_task>  (27) 
close_aromatic_ring

>  <scenario>  (27) 
1 0

>  <rotatable_bond_torsions>  (27) 
0,1,3,4

>  <reason_to_skip>  (27) 
incorrect arom ring closing

$$$$

     RDKit          3D

  6  5  0  0  0  0  0  0  0  0999 V2000
  -27.8640   -7.4760  -31.1990 C   0  0  0  0  0  0  0  0  0  0  0  0
  -27.5380   -6.7190  -32.2850 N   0  0  0  0  0  0  0  0  0  0  0  0
  -27.6840   -8.8650  -31.2620 N   0  0  0  0  0  0  0  0  0  0  0  0
  -27.8024   -5.3830  -31.8813 C   0  0  0  0  0  0  0  0  0  0  0  0
  -28.2578   -4.8905  -30.7215 C   0  0  0  0  0  0  0  0  0  0  0  0
    0.0000    0.0000    0.0000 O   0  0  0  0  0  0  0  0  0  0  0  0
  1  2  2  3
  1  3  1  0
  2  4  1  0
  4  5  1  0
  5  6  1  0
M  END
>  <name>  (28) 
Car Nac Nd0 Car Car O_a

>  <indices>  (28) 
[0, 1, 2]

>  <dummy>  (28) 
2

>  <tasks>  (28) 
probe_placing close_aromatic_ring close_aromatic_ring

>  <current_task>  (28) 
close_aromatic_ring

>  <prot_clashes>  (28) 
0

>  <NBS phar>  (28) 
0.2

>  <NBS_non-phar>  (28) 
0.8961941719055175

>  <NBS>  (28) 
1.0961941719055175

>  <source_stage>  (28) 
scored

>  <source_iter>  (28) 
2

>  <source_parent_mol>  (28) 
0

>  <source_scenario>  (28) 
1 0

>  <source_rank_in_scored_call>  (28) 
0

>  <source_current_task>  (28) 
close_aromatic_ring

>  <scenario>  (28) 
1 0

>  <rotatable_bond_torsions>  (28) 
0,1,3,4

>  <reason_to_skip>  (28) 
some_atom_counter_exceeded

$$$$

     RDKit          3D

  6  5  0  0  0  0  0  0  0  0999 V2000
  -27.8640   -7.4760  -31.1990 C   0  0  0  0  0  0  0  0  0  0  0  0
  -27.5380   -6.7190  -32.2850 N   0  0  0  0  0  0  0  0  0  0  0  0
  -27.6840   -8.8650  -31.2620 N   0  0  0  0  0  0  0  0  0  0  0  0
  -27.8024   -5.3830  -31.8813 C   0  0  0  0  0  0  0  0  0  0  0  0
  -28.2578   -4.8905  -30.7215 C   0  0  0  0  0  0  0  0  0  0  0  0
    0.0000    0.0000    0.0000 O   0  0  0  0  0  0  0  0  0  0  0  0
  1  2  2  3
  1  3  1  0
  2  4  1  0
  4  5  1  0
  5  6  1  0
M  END
>  <name>  (29) 
Car Nac Nd0 Car Car O_a

>  <indices>  (29) 
[0, 1, 2]

>  <dummy>  (29) 
2

>  <tasks>  (29) 
probe_placing close_aromatic_ring close_aromatic_ring

>  <current_task>  (29) 
close_aromatic_ring

>  <prot_clashes>  (29) 
0

>  <NBS phar>  (29) 
0.2

>  <NBS_non-phar>  (29) 
0.8961941719055175

>  <NBS>  (29) 
1.0961941719055175

>  <source_stage>  (29) 
scored

>  <source_iter>  (29) 
2

>  <source_parent_mol>  (29) 
0

>  <source_scenario>  (29) 
1 0

>  <source_rank_in_scored_call>  (29) 
0

>  <source_current_task>  (29) 
close_aromatic_ring

>  <scenario>  (29) 
1 0

>  <rotatable_bond_torsions>  (29) 
0,1,3,4

>  <reason_to_skip>  (29) 
some_atom_counter_exceeded

$$$$

     RDKit          3D

  6  5  0  0  0  0  0  0  0  0999 V2000
  -27.8640   -7.4760  -31.1990 C   0  0  0  0  0  0  0  0  0  0  0  0
  -27.5380   -6.7190  -32.2850 N   0  0  0  0  0  0  0  0  0  0  0  0
  -27.6840   -8.8650  -31.2620 N   0  0  0  0  0  0  0  0  0  0  0  0
  -27.8024   -5.3830  -31.8813 C   0  0  0  0  0  0  0  0  0  0  0  0
  -28.2578   -4.8905  -30.7215 C   0  0  0  0  0  0  0  0  0  0  0  0
  -28.6976   -3.7037  -30.4087 N   0  0  0  0  0  0  0  0  0  0  0  0
  1  2  2  3
  1  3  1  0
  2  4  1  0
  4  5  1  0
  5  6  1  0
M  END
>  <name>  (30) 
Car Nac Nd0 Car Car Nac

>  <indices>  (30) 
[0, 1, 2]

>  <dummy>  (30) 
2

>  <tasks>  (30) 
probe_placing close_aromatic_ring close_aromatic_ring

>  <current_task>  (30) 
close_aromatic_ring

>  <prot_clashes>  (30) 
0

>  <NBS phar>  (30) 
0.2

>  <NBS_non-phar>  (30) 
0.8961941719055175

>  <NBS>  (30) 
1.0961941719055175

>  <source_stage>  (30) 
scored

>  <source_iter>  (30) 
2

>  <source_parent_mol>  (30) 
0

>  <source_scenario>  (30) 
1 0

>  <source_rank_in_scored_call>  (30) 
0

>  <source_current_task>  (30) 
close_aromatic_ring

>  <scenario>  (30) 
1 0

>  <rotatable_bond_torsions>  (30) 
0,1,3,4

>  <reason_to_skip>  (30) 
incorrect arom ring closing

$$$$

     RDKit          3D

  6  5  0  0  0  0  0  0  0  0999 V2000
  -27.8640   -7.4760  -31.1990 C   0  0  0  0  0  0  0  0  0  0  0  0
  -27.5380   -6.7190  -32.2850 N   0  0  0  0  0  0  0  0  0  0  0  0
  -27.6840   -8.8650  -31.2620 N   0  0  0  0  0  0  0  0  0  0  0  0
  -27.8024   -5.3830  -31.8813 C   0  0  0  0  0  0  0  0  0  0  0  0
  -28.2578   -4.8905  -30.7215 C   0  0  0  0  0  0  0  0  0  0  0  0
  -27.5880   -4.7012  -29.5071 N   0  0  0  0  0  0  0  0  0  0  0  0
  1  2  2  3
  1  3  1  0
  2  4  1  0
  4  5  1  0
  5  6  2  0
M  END
>  <name>  (31) 
Car Nac Nd0 Car Car Nac

>  <indices>  (31) 
[0, 1, 2]

>  <dummy>  (31) 
2

>  <tasks>  (31) 
probe_placing close_aromatic_ring close_aromatic_ring

>  <current_task>  (31) 
close_aromatic_ring

>  <prot_clashes>  (31) 
0

>  <NBS phar>  (31) 
0.2

>  <NBS_non-phar>  (31) 
0.8961941719055175

>  <NBS>  (31) 
1.0961941719055175

>  <source_stage>  (31) 
scored

>  <source_iter>  (31) 
2

>  <source_parent_mol>  (31) 
0

>  <source_scenario>  (31) 
1 0

>  <source_rank_in_scored_call>  (31) 
0

>  <source_current_task>  (31) 
close_aromatic_ring

>  <scenario>  (31) 
1 0

>  <rotatable_bond_torsions>  (31) 
0,1,3,4

>  <reason_to_skip>  (31) 
incorrect arom ring closing

$$$$

     RDKit          3D

  6  5  0  0  0  0  0  0  0  0999 V2000
  -27.8640   -7.4760  -31.1990 C   0  0  0  0  0  0  0  0  0  0  0  0
  -27.5380   -6.7190  -32.2850 N   0  0  0  0  0  0  0  0  0  0  0  0
  -27.6840   -8.8650  -31.2620 N   0  0  0  0  0  0  0  0  0  0  0  0
  -27.8024   -5.3830  -31.8813 C   0  0  0  0  0  0  0  0  0  0  0  0
  -28.2578   -4.8905  -30.7215 C   0  0  0  0  0  0  0  0  0  0  0  0
  -29.5553   -4.5140  -30.4200 N   0  0  0  0  0  0  0  0  0  0  0  0
  1  2  2  3
  1  3  1  0
  2  4  1  0
  4  5  1  0
  5  6  1  0
M  END
>  <name>  (32) 
Car Nac Nd0 Car Car Nac

>  <indices>  (32) 
[0, 1, 2]

>  <dummy>  (32) 
2

>  <tasks>  (32) 
probe_placing close_aromatic_ring close_aromatic_ring

>  <current_task>  (32) 
close_aromatic_ring

>  <prot_clashes>  (32) 
0

>  <NBS phar>  (32) 
0.2

>  <NBS_non-phar>  (32) 
0.8961941719055175

>  <NBS>  (32) 
1.0961941719055175

>  <source_stage>  (32) 
scored

>  <source_iter>  (32) 
2

>  <source_parent_mol>  (32) 
0

>  <source_scenario>  (32) 
1 0

>  <source_rank_in_scored_call>  (32) 
0

>  <source_current_task>  (32) 
close_aromatic_ring

>  <scenario>  (32) 
1 0

>  <rotatable_bond_torsions>  (32) 
0,1,3,4

>  <reason_to_skip>  (32) 
incorrect arom ring closing

$$$$

     RDKit          3D

  6  5  0  0  0  0  0  0  0  0999 V2000
  -27.8640   -7.4760  -31.1990 C   0  0  0  0  0  0  0  0  0  0  0  0
  -27.5380   -6.7190  -32.2850 N   0  0  0  0  0  0  0  0  0  0  0  0
  -27.6840   -8.8650  -31.2620 N   0  0  0  0  0  0  0  0  0  0  0  0
  -27.8024   -5.3830  -31.8813 C   0  0  0  0  0  0  0  0  0  0  0  0
  -28.2578   -4.8905  -30.7215 C   0  0  0  0  0  0  0  0  0  0  0  0
    0.0000    0.0000    0.0000 S   0  0  0  0  0  0  0  0  0  0  0  0
  1  2  2  3
  1  3  1  0
  2  4  1  0
  4  5  1  0
  5  6  1  0
M  END
>  <name>  (33) 
Car Nac Nd0 Car Car Sul

>  <indices>  (33) 
[0, 1, 2]

>  <dummy>  (33) 
2

>  <tasks>  (33) 
probe_placing close_aromatic_ring close_aromatic_ring

>  <current_task>  (33) 
close_aromatic_ring

>  <prot_clashes>  (33) 
0

>  <NBS phar>  (33) 
0.2

>  <NBS_non-phar>  (33) 
0.8961941719055175

>  <NBS>  (33) 
1.0961941719055175

>  <source_stage>  (33) 
scored

>  <source_iter>  (33) 
2

>  <source_parent_mol>  (33) 
0

>  <source_scenario>  (33) 
1 0

>  <source_rank_in_scored_call>  (33) 
0

>  <source_current_task>  (33) 
close_aromatic_ring

>  <scenario>  (33) 
1 0

>  <rotatable_bond_torsions>  (33) 
0,1,3,4

>  <reason_to_skip>  (33) 
some_atom_counter_exceeded

$$$$

     RDKit          3D

  6  5  0  0  0  0  0  0  0  0999 V2000
  -27.8640   -7.4760  -31.1990 C   0  0  0  0  0  0  0  0  0  0  0  0
  -27.5380   -6.7190  -32.2850 N   0  0  0  0  0  0  0  0  0  0  0  0
  -27.6840   -8.8650  -31.2620 N   0  0  0  0  0  0  0  0  0  0  0  0
  -27.8024   -5.3830  -31.8813 C   0  0  0  0  0  0  0  0  0  0  0  0
  -28.2578   -4.8905  -30.7215 C   0  0  0  0  0  0  0  0  0  0  0  0
  -29.5814   -4.4050  -30.3776 C   0  0  0  0  0  0  0  0  0  0  0  0
  1  2  2  3
  1  3  1  0
  2  4  1  0
  4  5  1  0
  5  6  2  0
M  END
>  <name>  (34) 
Car Nac Nd0 Car Car Car

>  <indices>  (34) 
[0, 1, 2]

>  <dummy>  (34) 
2

>  <tasks>  (34) 
probe_placing close_aromatic_ring close_aromatic_ring

>  <current_task>  (34) 
close_aromatic_ring

>  <prot_clashes>  (34) 
0

>  <NBS phar>  (34) 
0.2

>  <NBS_non-phar>  (34) 
0.8961941719055175

>  <NBS>  (34) 
1.0961941719055175

>  <source_stage>  (34) 
scored

>  <source_iter>  (34) 
2

>  <source_parent_mol>  (34) 
0

>  <source_scenario>  (34) 
1 0

>  <source_rank_in_scored_call>  (34) 
0

>  <source_current_task>  (34) 
close_aromatic_ring

>  <scenario>  (34) 
1 0

>  <rotatable_bond_torsions>  (34) 
0,1,3,4

>  <reason_to_skip>  (34) 
incorrect arom ring closing

$$$$

     RDKit          3D

  6  5  0  0  0  0  0  0  0  0999 V2000
  -27.8640   -7.4760  -31.1990 C   0  0  0  0  0  0  0  0  0  0  0  0
  -27.5380   -6.7190  -32.2850 N   0  0  0  0  0  0  0  0  0  0  0  0
  -27.6840   -8.8650  -31.2620 N   0  0  0  0  0  0  0  0  0  0  0  0
  -27.8024   -5.3830  -31.8813 C   0  0  0  0  0  0  0  0  0  0  0  0
  -28.2578   -4.8905  -30.7215 C   0  0  0  0  0  0  0  0  0  0  0  0
    0.0000    0.0000    0.0000 S   0  0  0  0  0  0  0  0  0  0  0  0
  1  2  2  3
  1  3  1  0
  2  4  1  0
  4  5  1  0
  5  6  1  0
M  END
>  <name>  (35) 
Car Nac Nd0 Car Car Sul

>  <indices>  (35) 
[0, 1, 2]

>  <dummy>  (35) 
2

>  <tasks>  (35) 
probe_placing close_aromatic_ring close_aromatic_ring

>  <current_task>  (35) 
close_aromatic_ring

>  <prot_clashes>  (35) 
0

>  <NBS phar>  (35) 
0.2

>  <NBS_non-phar>  (35) 
0.8961941719055175

>  <NBS>  (35) 
1.0961941719055175

>  <source_stage>  (35) 
scored

>  <source_iter>  (35) 
2

>  <source_parent_mol>  (35) 
0

>  <source_scenario>  (35) 
1 0

>  <source_rank_in_scored_call>  (35) 
0

>  <source_current_task>  (35) 
close_aromatic_ring

>  <scenario>  (35) 
1 0

>  <rotatable_bond_torsions>  (35) 
0,1,3,4

>  <reason_to_skip>  (35) 
some_atom_counter_exceeded

$$$$

     RDKit          3D

  6  5  0  0  0  0  0  0  0  0999 V2000
  -27.8640   -7.4760  -31.1990 C   0  0  0  0  0  0  0  0  0  0  0  0
  -27.5380   -6.7190  -32.2850 N   0  0  0  0  0  0  0  0  0  0  0  0
  -27.6840   -8.8650  -31.2620 N   0  0  0  0  0  0  0  0  0  0  0  0
  -27.8024   -5.3830  -31.8813 C   0  0  0  0  0  0  0  0  0  0  0  0
  -28.2578   -4.8905  -30.7215 C   0  0  0  0  0  0  0  0  0  0  0  0
    0.0000    0.0000    0.0000 O   0  0  0  0  0  0  0  0  0  0  0  0
  1  2  2  3
  1  3  1  0
  2  4  1  0
  4  5  1  0
  5  6  1  0
M  END
>  <name>  (36) 
Car Nac Nd0 Car Car O_a

>  <indices>  (36) 
[0, 1, 2]

>  <dummy>  (36) 
2

>  <tasks>  (36) 
probe_placing close_aromatic_ring close_aromatic_ring

>  <current_task>  (36) 
close_aromatic_ring

>  <prot_clashes>  (36) 
0

>  <NBS phar>  (36) 
0.2

>  <NBS_non-phar>  (36) 
0.8961941719055175

>  <NBS>  (36) 
1.0961941719055175

>  <source_stage>  (36) 
scored

>  <source_iter>  (36) 
2

>  <source_parent_mol>  (36) 
0

>  <source_scenario>  (36) 
1 0

>  <source_rank_in_scored_call>  (36) 
0

>  <source_current_task>  (36) 
close_aromatic_ring

>  <scenario>  (36) 
1 0

>  <rotatable_bond_torsions>  (36) 
0,1,3,4

>  <reason_to_skip>  (36) 
some_atom_counter_exceeded

$$$$

     RDKit          3D

  6  5  0  0  0  0  0  0  0  0999 V2000
  -27.8640   -7.4760  -31.1990 C   0  0  0  0  0  0  0  0  0  0  0  0
  -27.5380   -6.7190  -32.2850 N   0  0  0  0  0  0  0  0  0  0  0  0
  -27.6840   -8.8650  -31.2620 N   0  0  0  0  0  0  0  0  0  0  0  0
  -27.8024   -5.3830  -31.8813 C   0  0  0  0  0  0  0  0  0  0  0  0
  -28.2578   -4.8905  -30.7215 C   0  0  0  0  0  0  0  0  0  0  0  0
  -28.7886   -5.6828  -29.7141 N   0  0  0  0  0  0  0  0  0  0  0  0
  1  2  2  3
  1  3  1  0
  2  4  1  0
  4  5  1  0
  5  6  1  0
M  END
>  <name>  (37) 
Car Nac Nd0 Car Car Nac

>  <indices>  (37) 
[0, 1, 2]

>  <dummy>  (37) 
2

>  <tasks>  (37) 
probe_placing close_aromatic_ring close_aromatic_ring

>  <current_task>  (37) 
close_aromatic_ring

>  <prot_clashes>  (37) 
0

>  <NBS phar>  (37) 
0.2

>  <NBS_non-phar>  (37) 
0.8961941719055175

>  <NBS>  (37) 
1.0961941719055175

>  <source_stage>  (37) 
scored

>  <source_iter>  (37) 
2

>  <source_parent_mol>  (37) 
0

>  <source_scenario>  (37) 
1 0

>  <source_rank_in_scored_call>  (37) 
0

>  <source_current_task>  (37) 
close_aromatic_ring

>  <scenario>  (37) 
1 0

>  <rotatable_bond_torsions>  (37) 
0,1,3,4

>  <reason_to_skip>  (37) 
incorrect arom ring closing

$$$$

     RDKit          3D

  6  5  0  0  0  0  0  0  0  0999 V2000
  -27.8640   -7.4760  -31.1990 C   0  0  0  0  0  0  0  0  0  0  0  0
  -27.5380   -6.7190  -32.2850 N   0  0  0  0  0  0  0  0  0  0  0  0
  -27.6840   -8.8650  -31.2620 N   0  0  0  0  0  0  0  0  0  0  0  0
  -27.8024   -5.3830  -31.8813 C   0  0  0  0  0  0  0  0  0  0  0  0
  -28.2578   -4.8905  -30.7215 C   0  0  0  0  0  0  0  0  0  0  0  0
  -27.4800   -4.1314  -29.7515 C   0  0  0  0  0  0  0  0  0  0  0  0
  1  2  2  3
  1  3  1  0
  2  4  1  0
  4  5  1  0
  5  6  2  0
M  END
>  <name>  (38) 
Car Nac Nd0 Car Car Car

>  <indices>  (38) 
[0, 1, 2]

>  <dummy>  (38) 
2

>  <tasks>  (38) 
probe_placing close_aromatic_ring close_aromatic_ring

>  <current_task>  (38) 
close_aromatic_ring

>  <prot_clashes>  (38) 
0

>  <NBS phar>  (38) 
0.2

>  <NBS_non-phar>  (38) 
0.8961941719055175

>  <NBS>  (38) 
1.0961941719055175

>  <source_stage>  (38) 
scored

>  <source_iter>  (38) 
2

>  <source_parent_mol>  (38) 
0

>  <source_scenario>  (38) 
1 0

>  <source_rank_in_scored_call>  (38) 
0

>  <source_current_task>  (38) 
close_aromatic_ring

>  <scenario>  (38) 
1 0

>  <rotatable_bond_torsions>  (38) 
0,1,3,4

>  <reason_to_skip>  (38) 
incorrect arom ring closing

$$$$

     RDKit          3D

  6  5  0  0  0  0  0  0  0  0999 V2000
  -27.8640   -7.4760  -31.1990 C   0  0  0  0  0  0  0  0  0  0  0  0
  -27.5380   -6.7190  -32.2850 N   0  0  0  0  0  0  0  0  0  0  0  0
  -27.6840   -8.8650  -31.2620 N   0  0  0  0  0  0  0  0  0  0  0  0
  -27.8024   -5.3830  -31.8813 C   0  0  0  0  0  0  0  0  0  0  0  0
  -28.2578   -4.8905  -30.7215 C   0  0  0  0  0  0  0  0  0  0  0  0
    0.0000    0.0000    0.0000 S   0  0  0  0  0  0  0  0  0  0  0  0
  1  2  2  3
  1  3  1  0
  2  4  1  0
  4  5  1  0
  5  6  1  0
M  END
>  <name>  (39) 
Car Nac Nd0 Car Car Sul

>  <indices>  (39) 
[0, 1, 2]

>  <dummy>  (39) 
2

>  <tasks>  (39) 
probe_placing close_aromatic_ring close_aromatic_ring

>  <current_task>  (39) 
close_aromatic_ring

>  <prot_clashes>  (39) 
0

>  <NBS phar>  (39) 
0.2

>  <NBS_non-phar>  (39) 
0.8961941719055175

>  <NBS>  (39) 
1.0961941719055175

>  <source_stage>  (39) 
scored

>  <source_iter>  (39) 
2

>  <source_parent_mol>  (39) 
0

>  <source_scenario>  (39) 
1 0

>  <source_rank_in_scored_call>  (39) 
0

>  <source_current_task>  (39) 
close_aromatic_ring

>  <scenario>  (39) 
1 0

>  <rotatable_bond_torsions>  (39) 
0,1,3,4

>  <reason_to_skip>  (39) 
some_atom_counter_exceeded

$$$$

     RDKit          3D

  6  5  0  0  0  0  0  0  0  0999 V2000
  -27.8640   -7.4760  -31.1990 C   0  0  0  0  0  0  0  0  0  0  0  0
  -27.5380   -6.7190  -32.2850 N   0  0  0  0  0  0  0  0  0  0  0  0
  -27.6840   -8.8650  -31.2620 N   0  0  0  0  0  0  0  0  0  0  0  0
  -27.8024   -5.3830  -31.8813 C   0  0  0  0  0  0  0  0  0  0  0  0
  -28.2578   -4.8905  -30.7215 C   0  0  0  0  0  0  0  0  0  0  0  0
    0.0000    0.0000    0.0000 O   0  0  0  0  0  0  0  0  0  0  0  0
  1  2  2  3
  1  3  1  0
  2  4  1  0
  4  5  1  0
  5  6  1  0
M  END
>  <name>  (40) 
Car Nac Nd0 Car Car O_a

>  <indices>  (40) 
[0, 1, 2]

>  <dummy>  (40) 
2

>  <tasks>  (40) 
probe_placing close_aromatic_ring close_aromatic_ring

>  <current_task>  (40) 
close_aromatic_ring

>  <prot_clashes>  (40) 
0

>  <NBS phar>  (40) 
0.2

>  <NBS_non-phar>  (40) 
0.8961941719055175

>  <NBS>  (40) 
1.0961941719055175

>  <source_stage>  (40) 
scored

>  <source_iter>  (40) 
2

>  <source_parent_mol>  (40) 
0

>  <source_scenario>  (40) 
1 0

>  <source_rank_in_scored_call>  (40) 
0

>  <source_current_task>  (40) 
close_aromatic_ring

>  <scenario>  (40) 
1 0

>  <rotatable_bond_torsions>  (40) 
0,1,3,4

>  <reason_to_skip>  (40) 
some_atom_counter_exceeded

$$$$

     RDKit          3D

  6  5  0  0  0  0  0  0  0  0999 V2000
  -27.8640   -7.4760  -31.1990 C   0  0  0  0  0  0  0  0  0  0  0  0
  -27.5380   -6.7190  -32.2850 N   0  0  0  0  0  0  0  0  0  0  0  0
  -27.6840   -8.8650  -31.2620 N   0  0  0  0  0  0  0  0  0  0  0  0
  -27.8024   -5.3830  -31.8813 C   0  0  0  0  0  0  0  0  0  0  0  0
  -28.2578   -4.8905  -30.7215 C   0  0  0  0  0  0  0  0  0  0  0  0
    0.0000    0.0000    0.0000 S   0  0  0  0  0  0  0  0  0  0  0  0
  1  2  2  3
  1  3  1  0
  2  4  1  0
  4  5  1  0
  5  6  1  0
M  END
>  <name>  (41) 
Car Nac Nd0 Car Car Sul

>  <indices>  (41) 
[0, 1, 2]

>  <dummy>  (41) 
2

>  <tasks>  (41) 
probe_placing close_aromatic_ring close_aromatic_ring

>  <current_task>  (41) 
close_aromatic_ring

>  <prot_clashes>  (41) 
0

>  <NBS phar>  (41) 
0.2

>  <NBS_non-phar>  (41) 
0.8961941719055175

>  <NBS>  (41) 
1.0961941719055175

>  <source_stage>  (41) 
scored

>  <source_iter>  (41) 
2

>  <source_parent_mol>  (41) 
0

>  <source_scenario>  (41) 
1 0

>  <source_rank_in_scored_call>  (41) 
0

>  <source_current_task>  (41) 
close_aromatic_ring

>  <scenario>  (41) 
1 0

>  <rotatable_bond_torsions>  (41) 
0,1,3,4

>  <reason_to_skip>  (41) 
some_atom_counter_exceeded

$$$$

     RDKit          3D

  6  5  0  0  0  0  0  0  0  0999 V2000
  -27.8640   -7.4760  -31.1990 C   0  0  0  0  0  0  0  0  0  0  0  0
  -27.5380   -6.7190  -32.2850 N   0  0  0  0  0  0  0  0  0  0  0  0
  -27.6840   -8.8650  -31.2620 N   0  0  0  0  0  0  0  0  0  0  0  0
  -27.8024   -5.3830  -31.8813 C   0  0  0  0  0  0  0  0  0  0  0  0
  -28.2578   -4.8905  -30.7215 C   0  0  0  0  0  0  0  0  0  0  0  0
    0.0000    0.0000    0.0000 S   0  0  0  0  0  0  0  0  0  0  0  0
  1  2  2  3
  1  3  1  0
  2  4  1  0
  4  5  1  0
  5  6  1  0
M  END
>  <name>  (42) 
Car Nac Nd0 Car Car Sul

>  <indices>  (42) 
[0, 1, 2]

>  <dummy>  (42) 
2

>  <tasks>  (42) 
probe_placing close_aromatic_ring close_aromatic_ring

>  <current_task>  (42) 
close_aromatic_ring

>  <prot_clashes>  (42) 
0

>  <NBS phar>  (42) 
0.2

>  <NBS_non-phar>  (42) 
0.8961941719055175

>  <NBS>  (42) 
1.0961941719055175

>  <source_stage>  (42) 
scored

>  <source_iter>  (42) 
2

>  <source_parent_mol>  (42) 
0

>  <source_scenario>  (42) 
1 0

>  <source_rank_in_scored_call>  (42) 
0

>  <source_current_task>  (42) 
close_aromatic_ring

>  <scenario>  (42) 
1 0

>  <rotatable_bond_torsions>  (42) 
0,1,3,4

>  <reason_to_skip>  (42) 
some_atom_counter_exceeded

$$$$

     RDKit          3D

  6  5  0  0  0  0  0  0  0  0999 V2000
  -27.8640   -7.4760  -31.1990 C   0  0  0  0  0  0  0  0  0  0  0  0
  -27.5380   -6.7190  -32.2850 N   0  0  0  0  0  0  0  0  0  0  0  0
  -27.6840   -8.8650  -31.2620 N   0  0  0  0  0  0  0  0  0  0  0  0
  -27.8024   -5.3830  -31.8813 C   0  0  0  0  0  0  0  0  0  0  0  0
  -28.2578   -4.8905  -30.7215 C   0  0  0  0  0  0  0  0  0  0  0  0
  -27.4375   -4.8985  -29.5050 C   0  0  0  0  0  0  0  0  0  0  0  0
  1  2  2  3
  1  3  1  0
  2  4  1  0
  4  5  1  0
  5  6  1  0
M  END
>  <name>  (43) 
Car Nac Nd0 Car Car Car

>  <indices>  (43) 
[0, 1, 2]

>  <dummy>  (43) 
2

>  <tasks>  (43) 
probe_placing close_aromatic_ring close_aromatic_ring

>  <current_task>  (43) 
close_aromatic_ring

>  <prot_clashes>  (43) 
0

>  <NBS phar>  (43) 
0.2

>  <NBS_non-phar>  (43) 
0.8961941719055175

>  <NBS>  (43) 
1.0961941719055175

>  <source_stage>  (43) 
scored

>  <source_iter>  (43) 
2

>  <source_parent_mol>  (43) 
0

>  <source_scenario>  (43) 
1 0

>  <source_rank_in_scored_call>  (43) 
0

>  <source_current_task>  (43) 
close_aromatic_ring

>  <scenario>  (43) 
1 0

>  <rotatable_bond_torsions>  (43) 
0,1,3,4

>  <reason_to_skip>  (43) 
incorrect arom ring closing

$$$$

     RDKit          3D

  6  5  0  0  0  0  0  0  0  0999 V2000
  -27.8640   -7.4760  -31.1990 C   0  0  0  0  0  0  0  0  0  0  0  0
  -27.5380   -6.7190  -32.2850 N   0  0  0  0  0  0  0  0  0  0  0  0
  -27.6840   -8.8650  -31.2620 N   0  0  0  0  0  0  0  0  0  0  0  0
  -27.8024   -5.3830  -31.8813 C   0  0  0  0  0  0  0  0  0  0  0  0
  -28.2578   -4.8905  -30.7215 C   0  0  0  0  0  0  0  0  0  0  0  0
    0.0000    0.0000    0.0000 O   0  0  0  0  0  0  0  0  0  0  0  0
  1  2  2  3
  1  3  1  0
  2  4  1  0
  4  5  1  0
  5  6  1  0
M  END
>  <name>  (44) 
Car Nac Nd0 Car Car O_a

>  <indices>  (44) 
[0, 1, 2]

>  <dummy>  (44) 
2

>  <tasks>  (44) 
probe_placing close_aromatic_ring close_aromatic_ring

>  <current_task>  (44) 
close_aromatic_ring

>  <prot_clashes>  (44) 
0

>  <NBS phar>  (44) 
0.2

>  <NBS_non-phar>  (44) 
0.8961941719055175

>  <NBS>  (44) 
1.0961941719055175

>  <source_stage>  (44) 
scored

>  <source_iter>  (44) 
2

>  <source_parent_mol>  (44) 
0

>  <source_scenario>  (44) 
1 0

>  <source_rank_in_scored_call>  (44) 
0

>  <source_current_task>  (44) 
close_aromatic_ring

>  <scenario>  (44) 
1 0

>  <rotatable_bond_torsions>  (44) 
0,1,3,4

>  <reason_to_skip>  (44) 
some_atom_counter_exceeded

$$$$

     RDKit          3D

  6  5  0  0  0  0  0  0  0  0999 V2000
  -27.8640   -7.4760  -31.1990 C   0  0  0  0  0  0  0  0  0  0  0  0
  -27.5380   -6.7190  -32.2850 N   0  0  0  0  0  0  0  0  0  0  0  0
  -27.6840   -8.8650  -31.2620 N   0  0  0  0  0  0  0  0  0  0  0  0
  -27.8024   -5.3830  -31.8813 C   0  0  0  0  0  0  0  0  0  0  0  0
  -28.2578   -4.8905  -30.7215 C   0  0  0  0  0  0  0  0  0  0  0  0
    0.0000    0.0000    0.0000 S   0  0  0  0  0  0  0  0  0  0  0  0
  1  2  2  3
  1  3  1  0
  2  4  1  0
  4  5  1  0
  5  6  1  0
M  END
>  <name>  (45) 
Car Nac Nd0 Car Car Sul

>  <indices>  (45) 
[0, 1, 2]

>  <dummy>  (45) 
2

>  <tasks>  (45) 
probe_placing close_aromatic_ring close_aromatic_ring

>  <current_task>  (45) 
close_aromatic_ring

>  <prot_clashes>  (45) 
0

>  <NBS phar>  (45) 
0.2

>  <NBS_non-phar>  (45) 
0.8961941719055175

>  <NBS>  (45) 
1.0961941719055175

>  <source_stage>  (45) 
scored

>  <source_iter>  (45) 
2

>  <source_parent_mol>  (45) 
0

>  <source_scenario>  (45) 
1 0

>  <source_rank_in_scored_call>  (45) 
0

>  <source_current_task>  (45) 
close_aromatic_ring

>  <scenario>  (45) 
1 0

>  <rotatable_bond_torsions>  (45) 
0,1,3,4

>  <reason_to_skip>  (45) 
some_atom_counter_exceeded

$$$$

     RDKit          3D

  6  5  0  0  0  0  0  0  0  0999 V2000
  -27.8640   -7.4760  -31.1990 C   0  0  0  0  0  0  0  0  0  0  0  0
  -27.5380   -6.7190  -32.2850 N   0  0  0  0  0  0  0  0  0  0  0  0
  -27.6840   -8.8650  -31.2620 N   0  0  0  0  0  0  0  0  0  0  0  0
  -27.8024   -5.3830  -31.8813 C   0  0  0  0  0  0  0  0  0  0  0  0
  -28.2578   -4.8905  -30.7215 C   0  0  0  0  0  0  0  0  0  0  0  0
    0.0000    0.0000    0.0000 S   0  0  0  0  0  0  0  0  0  0  0  0
  1  2  2  3
  1  3  1  0
  2  4  1  0
  4  5  1  0
  5  6  1  0
M  END
>  <name>  (46) 
Car Nac Nd0 Car Car Sul

>  <indices>  (46) 
[0, 1, 2]

>  <dummy>  (46) 
2

>  <tasks>  (46) 
probe_placing close_aromatic_ring close_aromatic_ring

>  <current_task>  (46) 
close_aromatic_ring

>  <prot_clashes>  (46) 
0

>  <NBS phar>  (46) 
0.2

>  <NBS_non-phar>  (46) 
0.8961941719055175

>  <NBS>  (46) 
1.0961941719055175

>  <source_stage>  (46) 
scored

>  <source_iter>  (46) 
2

>  <source_parent_mol>  (46) 
0

>  <source_scenario>  (46) 
1 0

>  <source_rank_in_scored_call>  (46) 
0

>  <source_current_task>  (46) 
close_aromatic_ring

>  <scenario>  (46) 
1 0

>  <rotatable_bond_torsions>  (46) 
0,1,3,4

>  <reason_to_skip>  (46) 
some_atom_counter_exceeded

$$$$

     RDKit          3D

  6  5  0  0  0  0  0  0  0  0999 V2000
  -27.8640   -7.4760  -31.1990 C   0  0  0  0  0  0  0  0  0  0  0  0
  -27.5380   -6.7190  -32.2850 N   0  0  0  0  0  0  0  0  0  0  0  0
  -27.6840   -8.8650  -31.2620 N   0  0  0  0  0  0  0  0  0  0  0  0
  -27.8024   -5.3830  -31.8813 C   0  0  0  0  0  0  0  0  0  0  0  0
  -28.2578   -4.8905  -30.7215 C   0  0  0  0  0  0  0  0  0  0  0  0
    0.0000    0.0000    0.0000 S   0  0  0  0  0  0  0  0  0  0  0  0
  1  2  2  3
  1  3  1  0
  2  4  1  0
  4  5  1  0
  5  6  1  0
M  END
>  <name>  (47) 
Car Nac Nd0 Car Car Sul

>  <indices>  (47) 
[0, 1, 2]

>  <dummy>  (47) 
2

>  <tasks>  (47) 
probe_placing close_aromatic_ring close_aromatic_ring

>  <current_task>  (47) 
close_aromatic_ring

>  <prot_clashes>  (47) 
0

>  <NBS phar>  (47) 
0.2

>  <NBS_non-phar>  (47) 
0.8961941719055175

>  <NBS>  (47) 
1.0961941719055175

>  <source_stage>  (47) 
scored

>  <source_iter>  (47) 
2

>  <source_parent_mol>  (47) 
0

>  <source_scenario>  (47) 
1 0

>  <source_rank_in_scored_call>  (47) 
0

>  <source_current_task>  (47) 
close_aromatic_ring

>  <scenario>  (47) 
1 0

>  <rotatable_bond_torsions>  (47) 
0,1,3,4

>  <reason_to_skip>  (47) 
some_atom_counter_exceeded

$$$$

     RDKit          3D

  6  5  0  0  0  0  0  0  0  0999 V2000
  -27.8640   -7.4760  -31.1990 C   0  0  0  0  0  0  0  0  0  0  0  0
  -27.5380   -6.7190  -32.2850 N   0  0  0  0  0  0  0  0  0  0  0  0
  -27.6840   -8.8650  -31.2620 N   0  0  0  0  0  0  0  0  0  0  0  0
  -27.8024   -5.3830  -31.8813 C   0  0  0  0  0  0  0  0  0  0  0  0
  -28.2578   -4.8905  -30.7215 C   0  0  0  0  0  0  0  0  0  0  0  0
  -29.3936   -4.3873  -30.3567 N   0  0  0  0  0  0  0  0  0  0  0  0
  1  2  2  3
  1  3  1  0
  2  4  1  0
  4  5  1  0
  5  6  2  0
M  END
>  <name>  (48) 
Car Nac Nd0 Car Car Nac

>  <indices>  (48) 
[0, 1, 2]

>  <dummy>  (48) 
2

>  <tasks>  (48) 
probe_placing close_aromatic_ring close_aromatic_ring

>  <current_task>  (48) 
close_aromatic_ring

>  <prot_clashes>  (48) 
0

>  <NBS phar>  (48) 
0.2

>  <NBS_non-phar>  (48) 
0.8961941719055175

>  <NBS>  (48) 
1.0961941719055175

>  <source_stage>  (48) 
scored

>  <source_iter>  (48) 
2

>  <source_parent_mol>  (48) 
0

>  <source_scenario>  (48) 
1 0

>  <source_rank_in_scored_call>  (48) 
0

>  <source_current_task>  (48) 
close_aromatic_ring

>  <scenario>  (48) 
1 0

>  <rotatable_bond_torsions>  (48) 
0,1,3,4

>  <reason_to_skip>  (48) 
incorrect arom ring closing

$$$$

     RDKit          3D

  6  5  0  0  0  0  0  0  0  0999 V2000
  -27.8640   -7.4760  -31.1990 C   0  0  0  0  0  0  0  0  0  0  0  0
  -27.5380   -6.7190  -32.2850 N   0  0  0  0  0  0  0  0  0  0  0  0
  -27.6840   -8.8650  -31.2620 N   0  0  0  0  0  0  0  0  0  0  0  0
  -27.8024   -5.3830  -31.8813 C   0  0  0  0  0  0  0  0  0  0  0  0
  -28.2578   -4.8905  -30.7215 C   0  0  0  0  0  0  0  0  0  0  0  0
  -27.6656   -4.0678  -29.9986 N   0  0  0  0  0  0  0  0  0  0  0  0
  1  2  2  3
  1  3  1  0
  2  4  1  0
  4  5  1  0
  5  6  1  0
M  END
>  <name>  (49) 
Car Nac Nd0 Car Car Nac

>  <indices>  (49) 
[0, 1, 2]

>  <dummy>  (49) 
2

>  <tasks>  (49) 
probe_placing close_aromatic_ring close_aromatic_ring

>  <current_task>  (49) 
close_aromatic_ring

>  <prot_clashes>  (49) 
0

>  <NBS phar>  (49) 
0.2

>  <NBS_non-phar>  (49) 
0.8961941719055175

>  <NBS>  (49) 
1.0961941719055175

>  <source_stage>  (49) 
scored

>  <source_iter>  (49) 
2

>  <source_parent_mol>  (49) 
0

>  <source_scenario>  (49) 
1 0

>  <source_rank_in_scored_call>  (49) 
0

>  <source_current_task>  (49) 
close_aromatic_ring

>  <scenario>  (49) 
1 0

>  <rotatable_bond_torsions>  (49) 
0,1,3,4

>  <reason_to_skip>  (49) 
incorrect arom ring closing

$$$$

     RDKit          3D

  6  5  0  0  0  0  0  0  0  0999 V2000
  -27.8640   -7.4760  -31.1990 C   0  0  0  0  0  0  0  0  0  0  0  0
  -27.5380   -6.7190  -32.2850 N   0  0  0  0  0  0  0  0  0  0  0  0
  -27.6840   -8.8650  -31.2620 N   0  0  0  0  0  0  0  0  0  0  0  0
  -27.8024   -5.3830  -31.8813 C   0  0  0  0  0  0  0  0  0  0  0  0
  -28.2578   -4.8905  -30.7215 C   0  0  0  0  0  0  0  0  0  0  0  0
  -27.6136   -4.2322  -29.7225 N   0  0  0  0  0  0  0  0  0  0  0  0
  1  2  2  3
  1  3  1  0
  2  4  1  0
  4  5  1  0
  5  6  2  0
M  END
>  <name>  (50) 
Car Nac Nd0 Car Car Nac

>  <indices>  (50) 
[0, 1, 2]

>  <dummy>  (50) 
2

>  <tasks>  (50) 
probe_placing close_aromatic_ring close_aromatic_ring

>  <current_task>  (50) 
close_aromatic_ring

>  <prot_clashes>  (50) 
0

>  <NBS phar>  (50) 
0.2

>  <NBS_non-phar>  (50) 
0.8961941719055175

>  <NBS>  (50) 
1.0961941719055175

>  <source_stage>  (50) 
scored

>  <source_iter>  (50) 
2

>  <source_parent_mol>  (50) 
0

>  <source_scenario>  (50) 
1 0

>  <source_rank_in_scored_call>  (50) 
0

>  <source_current_task>  (50) 
close_aromatic_ring

>  <scenario>  (50) 
1 0

>  <rotatable_bond_torsions>  (50) 
0,1,3,4

>  <reason_to_skip>  (50) 
incorrect arom ring closing

$$$$

     RDKit          3D

  6  5  0  0  0  0  0  0  0  0999 V2000
  -27.8640   -7.4760  -31.1990 C   0  0  0  0  0  0  0  0  0  0  0  0
  -27.5380   -6.7190  -32.2850 N   0  0  0  0  0  0  0  0  0  0  0  0
  -27.6840   -8.8650  -31.2620 N   0  0  0  0  0  0  0  0  0  0  0  0
  -27.8024   -5.3830  -31.8813 C   0  0  0  0  0  0  0  0  0  0  0  0
  -28.2578   -4.8905  -30.7215 C   0  0  0  0  0  0  0  0  0  0  0  0
    0.0000    0.0000    0.0000 O   0  0  0  0  0  0  0  0  0  0  0  0
  1  2  2  3
  1  3  1  0
  2  4  1  0
  4  5  1  0
  5  6  1  0
M  END
>  <name>  (51) 
Car Nac Nd0 Car Car O_a

>  <indices>  (51) 
[0, 1, 2]

>  <dummy>  (51) 
2

>  <tasks>  (51) 
probe_placing close_aromatic_ring close_aromatic_ring

>  <current_task>  (51) 
close_aromatic_ring

>  <prot_clashes>  (51) 
0

>  <NBS phar>  (51) 
0.2

>  <NBS_non-phar>  (51) 
0.8961941719055175

>  <NBS>  (51) 
1.0961941719055175

>  <source_stage>  (51) 
scored

>  <source_iter>  (51) 
2

>  <source_parent_mol>  (51) 
0

>  <source_scenario>  (51) 
1 0

>  <source_rank_in_scored_call>  (51) 
0

>  <source_current_task>  (51) 
close_aromatic_ring

>  <scenario>  (51) 
1 0

>  <rotatable_bond_torsions>  (51) 
0,1,3,4

>  <reason_to_skip>  (51) 
some_atom_counter_exceeded

$$$$

     RDKit          3D

  6  5  0  0  0  0  0  0  0  0999 V2000
  -27.8640   -7.4760  -31.1990 C   0  0  0  0  0  0  0  0  0  0  0  0
  -27.5380   -6.7190  -32.2850 N   0  0  0  0  0  0  0  0  0  0  0  0
  -27.6840   -8.8650  -31.2620 N   0  0  0  0  0  0  0  0  0  0  0  0
  -27.8024   -5.3830  -31.8813 C   0  0  0  0  0  0  0  0  0  0  0  0
  -28.2578   -4.8905  -30.7215 C   0  0  0  0  0  0  0  0  0  0  0  0
    0.0000    0.0000    0.0000 O   0  0  0  0  0  0  0  0  0  0  0  0
  1  2  2  3
  1  3  1  0
  2  4  1  0
  4  5  1  0
  5  6  1  0
M  END
>  <name>  (52) 
Car Nac Nd0 Car Car O_a

>  <indices>  (52) 
[0, 1, 2]

>  <dummy>  (52) 
2

>  <tasks>  (52) 
probe_placing close_aromatic_ring close_aromatic_ring

>  <current_task>  (52) 
close_aromatic_ring

>  <prot_clashes>  (52) 
0

>  <NBS phar>  (52) 
0.2

>  <NBS_non-phar>  (52) 
0.8961941719055175

>  <NBS>  (52) 
1.0961941719055175

>  <source_stage>  (52) 
scored

>  <source_iter>  (52) 
2

>  <source_parent_mol>  (52) 
0

>  <source_scenario>  (52) 
1 0

>  <source_rank_in_scored_call>  (52) 
0

>  <source_current_task>  (52) 
close_aromatic_ring

>  <scenario>  (52) 
1 0

>  <rotatable_bond_torsions>  (52) 
0,1,3,4

>  <reason_to_skip>  (52) 
some_atom_counter_exceeded

$$$$

     RDKit          3D

  6  5  0  0  0  0  0  0  0  0999 V2000
  -27.8640   -7.4760  -31.1990 C   0  0  0  0  0  0  0  0  0  0  0  0
  -27.5380   -6.7190  -32.2850 N   0  0  0  0  0  0  0  0  0  0  0  0
  -27.6840   -8.8650  -31.2620 N   0  0  0  0  0  0  0  0  0  0  0  0
  -27.8024   -5.3830  -31.8813 C   0  0  0  0  0  0  0  0  0  0  0  0
  -28.2578   -4.8905  -30.7215 C   0  0  0  0  0  0  0  0  0  0  0  0
  -29.4487   -4.3752  -30.5740 N   0  0  0  0  0  0  0  0  0  0  0  0
  1  2  2  3
  1  3  1  0
  2  4  1  0
  4  5  1  0
  5  6  1  0
M  END
>  <name>  (53) 
Car Nac Nd0 Car Car Nac

>  <indices>  (53) 
[0, 1, 2]

>  <dummy>  (53) 
2

>  <tasks>  (53) 
probe_placing close_aromatic_ring close_aromatic_ring

>  <current_task>  (53) 
close_aromatic_ring

>  <prot_clashes>  (53) 
0

>  <NBS phar>  (53) 
0.2

>  <NBS_non-phar>  (53) 
0.8961941719055175

>  <NBS>  (53) 
1.0961941719055175

>  <source_stage>  (53) 
scored

>  <source_iter>  (53) 
2

>  <source_parent_mol>  (53) 
0

>  <source_scenario>  (53) 
1 0

>  <source_rank_in_scored_call>  (53) 
0

>  <source_current_task>  (53) 
close_aromatic_ring

>  <scenario>  (53) 
1 0

>  <rotatable_bond_torsions>  (53) 
0,1,3,4

>  <reason_to_skip>  (53) 
incorrect arom ring closing

$$$$

     RDKit          3D

  6  5  0  0  0  0  0  0  0  0999 V2000
  -27.8640   -7.4760  -31.1990 C   0  0  0  0  0  0  0  0  0  0  0  0
  -27.5380   -6.7190  -32.2850 N   0  0  0  0  0  0  0  0  0  0  0  0
  -27.6840   -8.8650  -31.2620 N   0  0  0  0  0  0  0  0  0  0  0  0
  -27.8024   -5.3830  -31.8813 C   0  0  0  0  0  0  0  0  0  0  0  0
  -28.2578   -4.8905  -30.7215 C   0  0  0  0  0  0  0  0  0  0  0  0
    0.0000    0.0000    0.0000 S   0  0  0  0  0  0  0  0  0  0  0  0
  1  2  2  3
  1  3  1  0
  2  4  1  0
  4  5  1  0
  5  6  1  0
M  END
>  <name>  (54) 
Car Nac Nd0 Car Car Sul

>  <indices>  (54) 
[0, 1, 2]

>  <dummy>  (54) 
2

>  <tasks>  (54) 
probe_placing close_aromatic_ring close_aromatic_ring

>  <current_task>  (54) 
close_aromatic_ring

>  <prot_clashes>  (54) 
0

>  <NBS phar>  (54) 
0.2

>  <NBS_non-phar>  (54) 
0.8961941719055175

>  <NBS>  (54) 
1.0961941719055175

>  <source_stage>  (54) 
scored

>  <source_iter>  (54) 
2

>  <source_parent_mol>  (54) 
0

>  <source_scenario>  (54) 
1 0

>  <source_rank_in_scored_call>  (54) 
0

>  <source_current_task>  (54) 
close_aromatic_ring

>  <scenario>  (54) 
1 0

>  <rotatable_bond_torsions>  (54) 
0,1,3,4

>  <reason_to_skip>  (54) 
some_atom_counter_exceeded

$$$$

     RDKit          3D

  6  5  0  0  0  0  0  0  0  0999 V2000
  -27.8640   -7.4760  -31.1990 C   0  0  0  0  0  0  0  0  0  0  0  0
  -27.5380   -6.7190  -32.2850 N   0  0  0  0  0  0  0  0  0  0  0  0
  -27.6840   -8.8650  -31.2620 N   0  0  0  0  0  0  0  0  0  0  0  0
  -27.8024   -5.3830  -31.8813 C   0  0  0  0  0  0  0  0  0  0  0  0
  -28.2578   -4.8905  -30.7215 C   0  0  0  0  0  0  0  0  0  0  0  0
    0.0000    0.0000    0.0000 S   0  0  0  0  0  0  0  0  0  0  0  0
  1  2  2  3
  1  3  1  0
  2  4  1  0
  4  5  1  0
  5  6  1  0
M  END
>  <name>  (55) 
Car Nac Nd0 Car Car Sul

>  <indices>  (55) 
[0, 1, 2]

>  <dummy>  (55) 
2

>  <tasks>  (55) 
probe_placing close_aromatic_ring close_aromatic_ring

>  <current_task>  (55) 
close_aromatic_ring

>  <prot_clashes>  (55) 
0

>  <NBS phar>  (55) 
0.2

>  <NBS_non-phar>  (55) 
0.8961941719055175

>  <NBS>  (55) 
1.0961941719055175

>  <source_stage>  (55) 
scored

>  <source_iter>  (55) 
2

>  <source_parent_mol>  (55) 
0

>  <source_scenario>  (55) 
1 0

>  <source_rank_in_scored_call>  (55) 
0

>  <source_current_task>  (55) 
close_aromatic_ring

>  <scenario>  (55) 
1 0

>  <rotatable_bond_torsions>  (55) 
0,1,3,4

>  <reason_to_skip>  (55) 
some_atom_counter_exceeded

$$$$

     RDKit          3D

  6  5  0  0  0  0  0  0  0  0999 V2000
  -27.8640   -7.4760  -31.1990 C   0  0  0  0  0  0  0  0  0  0  0  0
  -27.5380   -6.7190  -32.2850 N   0  0  0  0  0  0  0  0  0  0  0  0
  -27.6840   -8.8650  -31.2620 N   0  0  0  0  0  0  0  0  0  0  0  0
  -27.8024   -5.3830  -31.8813 C   0  0  0  0  0  0  0  0  0  0  0  0
  -28.2578   -4.8905  -30.7215 C   0  0  0  0  0  0  0  0  0  0  0  0
  -28.5592   -5.6158  -29.5216 N   0  0  0  0  0  0  0  0  0  0  0  0
  1  2  2  3
  1  3  1  0
  2  4  1  0
  4  5  1  0
  5  6  1  0
M  END
>  <name>  (56) 
Car Nac Nd0 Car Car Nac

>  <indices>  (56) 
[0, 1, 2]

>  <dummy>  (56) 
2

>  <tasks>  (56) 
probe_placing close_aromatic_ring close_aromatic_ring

>  <current_task>  (56) 
close_aromatic_ring

>  <prot_clashes>  (56) 
0

>  <NBS phar>  (56) 
0.2

>  <NBS_non-phar>  (56) 
0.8961941719055175

>  <NBS>  (56) 
1.0961941719055175

>  <source_stage>  (56) 
scored

>  <source_iter>  (56) 
2

>  <source_parent_mol>  (56) 
0

>  <source_scenario>  (56) 
1 0

>  <source_rank_in_scored_call>  (56) 
0

>  <source_current_task>  (56) 
close_aromatic_ring

>  <scenario>  (56) 
1 0

>  <rotatable_bond_torsions>  (56) 
0,1,3,4

>  <reason_to_skip>  (56) 
subgraph mismatch

$$$$

     RDKit          3D

  6  5  0  0  0  0  0  0  0  0999 V2000
  -27.8640   -7.4760  -31.1990 C   0  0  0  0  0  0  0  0  0  0  0  0
  -27.5380   -6.7190  -32.2850 N   0  0  0  0  0  0  0  0  0  0  0  0
  -27.6840   -8.8650  -31.2620 N   0  0  0  0  0  0  0  0  0  0  0  0
  -27.8024   -5.3830  -31.8813 C   0  0  0  0  0  0  0  0  0  0  0  0
  -28.2578   -4.8905  -30.7215 C   0  0  0  0  0  0  0  0  0  0  0  0
  -28.5146   -5.8765  -29.7067 N   0  0  0  0  0  0  0  0  0  0  0  0
  1  2  2  3
  1  3  1  0
  2  4  1  0
  4  5  1  0
  5  6  2  0
M  END
>  <name>  (57) 
Car Nac Nd0 Car Car Nac

>  <indices>  (57) 
[0, 1, 2]

>  <dummy>  (57) 
2

>  <tasks>  (57) 
probe_placing close_aromatic_ring close_aromatic_ring

>  <current_task>  (57) 
close_aromatic_ring

>  <prot_clashes>  (57) 
0

>  <NBS phar>  (57) 
0.2

>  <NBS_non-phar>  (57) 
0.8961941719055175

>  <NBS>  (57) 
1.0961941719055175

>  <source_stage>  (57) 
scored

>  <source_iter>  (57) 
2

>  <source_parent_mol>  (57) 
0

>  <source_scenario>  (57) 
1 0

>  <source_rank_in_scored_call>  (57) 
0

>  <source_current_task>  (57) 
close_aromatic_ring

>  <scenario>  (57) 
1 0

>  <rotatable_bond_torsions>  (57) 
0,1,3,4

>  <reason_to_skip>  (57) 
subgraph mismatch

$$$$

     RDKit          3D

  7  7  0  0  0  0  0  0  0  0999 V2000
  -27.8325   -7.5096  -31.0214 C   0  0  0  0  0  0  0  0  0  0  0  0
  -27.5319   -6.7147  -32.0611 N   0  0  0  0  0  0  0  0  0  0  0  0
  -27.6840   -8.8650  -31.2620 N   0  0  0  0  0  0  0  0  0  0  0  0
  -28.1134   -5.3537  -32.0072 C   0  0  0  0  0  0  0  0  0  0  0  0
  -27.9925   -4.8103  -30.5766 C   0  0  0  0  0  0  0  0  0  0  0  0
  -28.6980   -5.7584  -29.6838 C   0  0  0  0  0  0  0  0  0  0  0  0
  -28.6295   -7.1212  -29.8881 C   0  0  0  0  0  0  0  0  0  0  0  0
  1  2  2  0
  1  3  1  0
  2  4  1  0
  4  5  1  0
  5  6  1  0
  6  7  2  0
  1  7  1  0
M  END
>  <name>  (1) 
Car Nac Nd0 Car Car Car Car

>  <indices>  (1) 
[0, 1, 2]

>  <dummy>  (1) 
2

>  <tasks>  (1) 
probe_placing close_aromatic_ring close_aromatic_ring close_aromatic_ring

>  <current_task>  (1) 
close_aromatic_ring

>  <prot_clashes>  (1) 
1

>  <NBS phar>  (1) 
0.2

>  <NBS_non-phar>  (1) 
0.8808979988098145

>  <NBS>  (1) 
1.0808979988098144

>  <source_stage>  (1) 
scored

>  <source_iter>  (1) 
3

>  <source_parent_mol>  (1) 
0

>  <source_scenario>  (1) 
1 0 0

>  <source_rank_in_scored_call>  (1) 
0

>  <source_current_task>  (1) 
close_aromatic_ring

>  <scenario>  (1) 
1 0 0

>  <rotatable_bond_torsions>  (1) 
0,1,3,4;1,3,4,5

>  <reason_to_skip>  (1) 
Car-Nac-DB dihedral

$$$$

     RDKit          3D

  7  7  0  0  0  0  0  0  0  0999 V2000
  -27.9188   -7.4534  -31.1084 C   0  0  0  0  0  0  0  0  0  0  0  0
  -27.6438   -6.8038  -32.2009 N   0  0  0  0  0  0  0  0  0  0  0  0
  -27.6840   -8.8650  -31.2620 N   0  0  0  0  0  0  0  0  0  0  0  0
  -27.9039   -5.3935  -31.8507 C   0  0  0  0  0  0  0  0  0  0  0  0
  -28.0016   -4.8276  -30.5016 C   0  0  0  0  0  0  0  0  0  0  0  0
  -28.9779   -5.7016  -29.7851 C   0  0  0  0  0  0  0  0  0  0  0  0
  -28.2725   -7.0971  -29.7863 C   0  0  0  0  0  0  0  0  0  0  0  0
  1  2  2  0
  1  3  1  0
  2  4  1  0
  4  5  1  0
  5  6  1  0
  6  7  1  0
  1  7  1  0
M  END
>  <name>  (2) 
Car Nac Nd0 Car Car Car Car

>  <indices>  (2) 
[0, 1, 2]

>  <dummy>  (2) 
2

>  <tasks>  (2) 
probe_placing close_aromatic_ring close_aromatic_ring close_aromatic_ring

>  <current_task>  (2) 
close_aromatic_ring

>  <prot_clashes>  (2) 
1

>  <NBS phar>  (2) 
0.2

>  <NBS_non-phar>  (2) 
0.8808979988098145

>  <NBS>  (2) 
1.0808979988098144

>  <source_stage>  (2) 
scored

>  <source_iter>  (2) 
3

>  <source_parent_mol>  (2) 
0

>  <source_scenario>  (2) 
1 0 0

>  <source_rank_in_scored_call>  (2) 
0

>  <source_current_task>  (2) 
close_aromatic_ring

>  <scenario>  (2) 
1 0 0

>  <rotatable_bond_torsions>  (2) 
0,1,3,4;1,3,4,5

>  <reason_to_skip>  (2) 
too many Car with no DBs

$$$$

     RDKit          3D

  7  6  0  0  0  0  0  0  0  0999 V2000
  -27.8640   -7.4760  -31.1990 C   0  0  0  0  0  0  0  0  0  0  0  0
  -27.5380   -6.7190  -32.2850 N   0  0  0  0  0  0  0  0  0  0  0  0
  -27.6840   -8.8650  -31.2620 N   0  0  0  0  0  0  0  0  0  0  0  0
  -27.8024   -5.3830  -31.8813 C   0  0  0  0  0  0  0  0  0  0  0  0
  -28.2578   -4.8905  -30.7215 C   0  0  0  0  0  0  0  0  0  0  0  0
  -28.6964   -5.6502  -29.5041 C   0  0  0  0  0  0  0  0  0  0  0  0
  -29.0866   -5.0609  -28.2971 N   0  0  0  0  0  0  0  0  0  0  0  0
  1  2  2  3
  1  3  1  0
  2  4  1  0
  4  5  1  0
  5  6  1  0
  6  7  1  0
M  END
>  <name>  (3) 
Car Nac Nd0 Car Car Car Nd0

>  <indices>  (3) 
[0, 1, 2]

>  <dummy>  (3) 
2

>  <tasks>  (3) 
probe_placing close_aromatic_ring close_aromatic_ring close_aromatic_ring

>  <current_task>  (3) 
close_aromatic_ring

>  <prot_clashes>  (3) 
1

>  <NBS phar>  (3) 
0.2

>  <NBS_non-phar>  (3) 
0.8808979988098145

>  <NBS>  (3) 
1.0808979988098144

>  <source_stage>  (3) 
scored

>  <source_iter>  (3) 
3

>  <source_parent_mol>  (3) 
0

>  <source_scenario>  (3) 
1 0 0

>  <source_rank_in_scored_call>  (3) 
0

>  <source_current_task>  (3) 
close_aromatic_ring

>  <scenario>  (3) 
1 0 0

>  <rotatable_bond_torsions>  (3) 
0,1,3,4;1,3,4,5

>  <reason_to_skip>  (3) 
incorrect arom ring closing

$$$$

     RDKit          3D

  7  6  0  0  0  0  0  0  0  0999 V2000
  -27.8640   -7.4760  -31.1990 C   0  0  0  0  0  0  0  0  0  0  0  0
  -27.5380   -6.7190  -32.2850 N   0  0  0  0  0  0  0  0  0  0  0  0
  -27.6840   -8.8650  -31.2620 N   0  0  0  0  0  0  0  0  0  0  0  0
  -27.8024   -5.3830  -31.8813 C   0  0  0  0  0  0  0  0  0  0  0  0
  -28.2578   -4.8905  -30.7215 C   0  0  0  0  0  0  0  0  0  0  0  0
  -28.6964   -5.6502  -29.5041 C   0  0  0  0  0  0  0  0  0  0  0  0
  -29.2427   -5.0895  -28.3480 N   0  0  0  0  0  0  0  0  0  0  0  0
  1  2  2  3
  1  3  1  0
  2  4  1  0
  4  5  1  0
  5  6  1  0
  6  7  1  0
M  END
>  <name>  (4) 
Car Nac Nd0 Car Car Car Nd0

>  <indices>  (4) 
[0, 1, 2]

>  <dummy>  (4) 
2

>  <tasks>  (4) 
probe_placing close_aromatic_ring close_aromatic_ring close_aromatic_ring

>  <current_task>  (4) 
close_aromatic_ring

>  <prot_clashes>  (4) 
1

>  <NBS phar>  (4) 
0.2

>  <NBS_non-phar>  (4) 
0.8808979988098145

>  <NBS>  (4) 
1.0808979988098144

>  <source_stage>  (4) 
scored

>  <source_iter>  (4) 
3

>  <source_parent_mol>  (4) 
0

>  <source_scenario>  (4) 
1 0 0

>  <source_rank_in_scored_call>  (4) 
0

>  <source_current_task>  (4) 
close_aromatic_ring

>  <scenario>  (4) 
1 0 0

>  <rotatable_bond_torsions>  (4) 
0,1,3,4;1,3,4,5

>  <reason_to_skip>  (4) 
incorrect arom ring closing

$$$$

     RDKit          3D

  7  6  0  0  0  0  0  0  0  0999 V2000
  -27.8640   -7.4760  -31.1990 C   0  0  0  0  0  0  0  0  0  0  0  0
  -27.5380   -6.7190  -32.2850 N   0  0  0  0  0  0  0  0  0  0  0  0
  -27.6840   -8.8650  -31.2620 N   0  0  0  0  0  0  0  0  0  0  0  0
  -27.8024   -5.3830  -31.8813 C   0  0  0  0  0  0  0  0  0  0  0  0
  -28.2578   -4.8905  -30.7215 C   0  0  0  0  0  0  0  0  0  0  0  0
  -28.6964   -5.6502  -29.5041 C   0  0  0  0  0  0  0  0  0  0  0  0
  -29.1031   -5.0561  -28.4682 N   0  0  0  0  0  0  0  0  0  0  0  0
  1  2  2  3
  1  3  1  0
  2  4  1  0
  4  5  1  0
  5  6  1  0
  6  7  1  0
M  END
>  <name>  (5) 
Car Nac Nd0 Car Car Car Nac

>  <indices>  (5) 
[0, 1, 2]

>  <dummy>  (5) 
2

>  <tasks>  (5) 
probe_placing close_aromatic_ring close_aromatic_ring close_aromatic_ring

>  <current_task>  (5) 
close_aromatic_ring

>  <prot_clashes>  (5) 
1

>  <NBS phar>  (5) 
0.2

>  <NBS_non-phar>  (5) 
0.8808979988098145

>  <NBS>  (5) 
1.0808979988098144

>  <source_stage>  (5) 
scored

>  <source_iter>  (5) 
3

>  <source_parent_mol>  (5) 
0

>  <source_scenario>  (5) 
1 0 0

>  <source_rank_in_scored_call>  (5) 
0

>  <source_current_task>  (5) 
close_aromatic_ring

>  <scenario>  (5) 
1 0 0

>  <rotatable_bond_torsions>  (5) 
0,1,3,4;1,3,4,5

>  <reason_to_skip>  (5) 
incorrect arom ring closing

$$$$

     RDKit          3D

  7  6  0  0  0  0  0  0  0  0999 V2000
  -27.8640   -7.4760  -31.1990 C   0  0  0  0  0  0  0  0  0  0  0  0
  -27.5380   -6.7190  -32.2850 N   0  0  0  0  0  0  0  0  0  0  0  0
  -27.6840   -8.8650  -31.2620 N   0  0  0  0  0  0  0  0  0  0  0  0
  -27.8024   -5.3830  -31.8813 C   0  0  0  0  0  0  0  0  0  0  0  0
  -28.2578   -4.8905  -30.7215 C   0  0  0  0  0  0  0  0  0  0  0  0
  -28.6964   -5.6502  -29.5041 C   0  0  0  0  0  0  0  0  0  0  0  0
  -29.1179   -5.1340  -28.4458 N   0  0  0  0  0  0  0  0  0  0  0  0
  1  2  2  3
  1  3  1  0
  2  4  1  0
  4  5  1  0
  5  6  1  0
  6  7  1  0
M  END
>  <name>  (6) 
Car Nac Nd0 Car Car Car Nac

>  <indices>  (6) 
[0, 1, 2]

>  <dummy>  (6) 
2

>  <tasks>  (6) 
probe_placing close_aromatic_ring close_aromatic_ring close_aromatic_ring

>  <current_task>  (6) 
close_aromatic_ring

>  <prot_clashes>  (6) 
1

>  <NBS phar>  (6) 
0.2

>  <NBS_non-phar>  (6) 
0.8808979988098145

>  <NBS>  (6) 
1.0808979988098144

>  <source_stage>  (6) 
scored

>  <source_iter>  (6) 
3

>  <source_parent_mol>  (6) 
0

>  <source_scenario>  (6) 
1 0 0

>  <source_rank_in_scored_call>  (6) 
0

>  <source_current_task>  (6) 
close_aromatic_ring

>  <scenario>  (6) 
1 0 0

>  <rotatable_bond_torsions>  (6) 
0,1,3,4;1,3,4,5

>  <reason_to_skip>  (6) 
incorrect arom ring closing

$$$$

     RDKit          3D

  7  7  0  0  0  0  0  0  0  0999 V2000
  -28.0430   -7.5269  -31.1583 C   0  0  0  0  0  0  0  0  0  0  0  0
  -27.6016   -6.7153  -32.0621 N   0  0  0  0  0  0  0  0  0  0  0  0
  -27.6840   -8.8650  -31.2620 N   0  0  0  0  0  0  0  0  0  0  0  0
  -27.5262   -5.2787  -31.8207 C   0  0  0  0  0  0  0  0  0  0  0  0
  -28.6420   -4.8866  -30.8445 C   0  0  0  0  0  0  0  0  0  0  0  0
  -28.4357   -5.6602  -29.5457 C   0  0  0  0  0  0  0  0  0  0  0  0
  -28.4894   -7.0993  -29.8617 N   0  0  0  0  0  0  0  0  0  0  0  0
  1  2  2  0
  1  3  1  0
  2  4  1  0
  4  5  1  0
  5  6  1  0
  6  7  1  0
  1  7  1  0
M  END
>  <name>  (7) 
Car Nac Nd0 Car Car Car Nac

>  <indices>  (7) 
[0, 1, 2]

>  <dummy>  (7) 
2

>  <tasks>  (7) 
probe_placing close_aromatic_ring close_aromatic_ring close_aromatic_ring

>  <current_task>  (7) 
close_aromatic_ring

>  <prot_clashes>  (7) 
1

>  <NBS phar>  (7) 
0.2

>  <NBS_non-phar>  (7) 
0.8808979988098145

>  <NBS>  (7) 
1.0808979988098144

>  <source_stage>  (7) 
scored

>  <source_iter>  (7) 
3

>  <source_parent_mol>  (7) 
0

>  <source_scenario>  (7) 
1 0 0

>  <source_rank_in_scored_call>  (7) 
0

>  <source_current_task>  (7) 
close_aromatic_ring

>  <scenario>  (7) 
1 0 0

>  <rotatable_bond_torsions>  (7) 
0,1,3,4;1,3,4,5

>  <reason_to_skip>  (7) 
too many Car with no DBs

$$$$

     RDKit          3D

  7  6  0  0  0  0  0  0  0  0999 V2000
  -27.8640   -7.4760  -31.1990 C   0  0  0  0  0  0  0  0  0  0  0  0
  -27.5380   -6.7190  -32.2850 N   0  0  0  0  0  0  0  0  0  0  0  0
  -27.6840   -8.8650  -31.2620 N   0  0  0  0  0  0  0  0  0  0  0  0
  -27.8024   -5.3830  -31.8813 C   0  0  0  0  0  0  0  0  0  0  0  0
  -28.2578   -4.8905  -30.7215 C   0  0  0  0  0  0  0  0  0  0  0  0
  -28.6964   -5.6502  -29.5041 C   0  0  0  0  0  0  0  0  0  0  0  0
    0.0000    0.0000    0.0000 O   0  0  0  0  0  0  0  0  0  0  0  0
  1  2  2  3
  1  3  1  0
  2  4  1  0
  4  5  1  0
  5  6  1  0
  6  7  1  0
M  END
>  <name>  (8) 
Car Nac Nd0 Car Car Car O_a

>  <indices>  (8) 
[0, 1, 2]

>  <dummy>  (8) 
2

>  <tasks>  (8) 
probe_placing close_aromatic_ring close_aromatic_ring close_aromatic_ring

>  <current_task>  (8) 
close_aromatic_ring

>  <prot_clashes>  (8) 
1

>  <NBS phar>  (8) 
0.2

>  <NBS_non-phar>  (8) 
0.8808979988098145

>  <NBS>  (8) 
1.0808979988098144

>  <source_stage>  (8) 
scored

>  <source_iter>  (8) 
3

>  <source_parent_mol>  (8) 
0

>  <source_scenario>  (8) 
1 0 0

>  <source_rank_in_scored_call>  (8) 
0

>  <source_current_task>  (8) 
close_aromatic_ring

>  <scenario>  (8) 
1 0 0

>  <rotatable_bond_torsions>  (8) 
0,1,3,4;1,3,4,5

>  <reason_to_skip>  (8) 
some_atom_counter_exceeded

$$$$

     RDKit          3D

  7  6  0  0  0  0  0  0  0  0999 V2000
  -27.8640   -7.4760  -31.1990 C   0  0  0  0  0  0  0  0  0  0  0  0
  -27.5380   -6.7190  -32.2850 N   0  0  0  0  0  0  0  0  0  0  0  0
  -27.6840   -8.8650  -31.2620 N   0  0  0  0  0  0  0  0  0  0  0  0
  -27.8024   -5.3830  -31.8813 C   0  0  0  0  0  0  0  0  0  0  0  0
  -28.2578   -4.8905  -30.7215 C   0  0  0  0  0  0  0  0  0  0  0  0
  -28.6964   -5.6502  -29.5041 C   0  0  0  0  0  0  0  0  0  0  0  0
    0.0000    0.0000    0.0000 O   0  0  0  0  0  0  0  0  0  0  0  0
  1  2  2  3
  1  3  1  0
  2  4  1  0
  4  5  1  0
  5  6  1  0
  6  7  1  0
M  END
>  <name>  (9) 
Car Nac Nd0 Car Car Car O_a

>  <indices>  (9) 
[0, 1, 2]

>  <dummy>  (9) 
2

>  <tasks>  (9) 
probe_placing close_aromatic_ring close_aromatic_ring close_aromatic_ring

>  <current_task>  (9) 
close_aromatic_ring

>  <prot_clashes>  (9) 
1

>  <NBS phar>  (9) 
0.2

>  <NBS_non-phar>  (9) 
0.8808979988098145

>  <NBS>  (9) 
1.0808979988098144

>  <source_stage>  (9) 
scored

>  <source_iter>  (9) 
3

>  <source_parent_mol>  (9) 
0

>  <source_scenario>  (9) 
1 0 0

>  <source_rank_in_scored_call>  (9) 
0

>  <source_current_task>  (9) 
close_aromatic_ring

>  <scenario>  (9) 
1 0 0

>  <rotatable_bond_torsions>  (9) 
0,1,3,4;1,3,4,5

>  <reason_to_skip>  (9) 
some_atom_counter_exceeded

$$$$

     RDKit          3D

  7  6  0  0  0  0  0  0  0  0999 V2000
  -27.8640   -7.4760  -31.1990 C   0  0  0  0  0  0  0  0  0  0  0  0
  -27.5380   -6.7190  -32.2850 N   0  0  0  0  0  0  0  0  0  0  0  0
  -27.6840   -8.8650  -31.2620 N   0  0  0  0  0  0  0  0  0  0  0  0
  -27.8024   -5.3830  -31.8813 C   0  0  0  0  0  0  0  0  0  0  0  0
  -28.2578   -4.8905  -30.7215 C   0  0  0  0  0  0  0  0  0  0  0  0
  -28.6964   -5.6502  -29.5041 C   0  0  0  0  0  0  0  0  0  0  0  0
  -28.1681   -6.9293  -29.1279 C   0  0  0  0  0  0  0  0  0  0  0  0
  1  2  2  3
  1  3  1  0
  2  4  1  0
  4  5  1  0
  5  6  1  0
  6  7  1  0
M  END
>  <name>  (10) 
Car Nac Nd0 Car Car Car Car

>  <indices>  (10) 
[0, 1, 2]

>  <dummy>  (10) 
2

>  <tasks>  (10) 
probe_placing close_aromatic_ring close_aromatic_ring close_aromatic_ring

>  <current_task>  (10) 
close_aromatic_ring

>  <prot_clashes>  (10) 
1

>  <NBS phar>  (10) 
0.2

>  <NBS_non-phar>  (10) 
0.8808979988098145

>  <NBS>  (10) 
1.0808979988098144

>  <source_stage>  (10) 
scored

>  <source_iter>  (10) 
3

>  <source_parent_mol>  (10) 
0

>  <source_scenario>  (10) 
1 0 0

>  <source_rank_in_scored_call>  (10) 
0

>  <source_current_task>  (10) 
close_aromatic_ring

>  <scenario>  (10) 
1 0 0

>  <rotatable_bond_torsions>  (10) 
0,1,3,4;1,3,4,5

>  <reason_to_skip>  (10) 
incorrect arom ring closing

$$$$

     RDKit          3D

  7  6  0  0  0  0  0  0  0  0999 V2000
  -27.8640   -7.4760  -31.1990 C   0  0  0  0  0  0  0  0  0  0  0  0
  -27.5380   -6.7190  -32.2850 N   0  0  0  0  0  0  0  0  0  0  0  0
  -27.6840   -8.8650  -31.2620 N   0  0  0  0  0  0  0  0  0  0  0  0
  -27.8024   -5.3830  -31.8813 C   0  0  0  0  0  0  0  0  0  0  0  0
  -28.2578   -4.8905  -30.7215 C   0  0  0  0  0  0  0  0  0  0  0  0
  -28.6964   -5.6502  -29.5041 C   0  0  0  0  0  0  0  0  0  0  0  0
  -29.7583   -5.3049  -28.8080 N   0  0  0  0  0  0  0  0  0  0  0  0
  1  2  2  3
  1  3  1  0
  2  4  1  0
  4  5  1  0
  5  6  1  0
  6  7  2  0
M  END
>  <name>  (11) 
Car Nac Nd0 Car Car Car Nac

>  <indices>  (11) 
[0, 1, 2]

>  <dummy>  (11) 
2

>  <tasks>  (11) 
probe_placing close_aromatic_ring close_aromatic_ring close_aromatic_ring

>  <current_task>  (11) 
close_aromatic_ring

>  <prot_clashes>  (11) 
1

>  <NBS phar>  (11) 
0.2

>  <NBS_non-phar>  (11) 
0.8808979988098145

>  <NBS>  (11) 
1.0808979988098144

>  <source_stage>  (11) 
scored

>  <source_iter>  (11) 
3

>  <source_parent_mol>  (11) 
0

>  <source_scenario>  (11) 
1 0 0

>  <source_rank_in_scored_call>  (11) 
0

>  <source_current_task>  (11) 
close_aromatic_ring

>  <scenario>  (11) 
1 0 0

>  <rotatable_bond_torsions>  (11) 
0,1,3,4;1,3,4,5

>  <reason_to_skip>  (11) 
incorrect arom ring closing

$$$$

     RDKit          3D

  7  6  0  0  0  0  0  0  0  0999 V2000
  -27.8640   -7.4760  -31.1990 C   0  0  0  0  0  0  0  0  0  0  0  0
  -27.5380   -6.7190  -32.2850 N   0  0  0  0  0  0  0  0  0  0  0  0
  -27.6840   -8.8650  -31.2620 N   0  0  0  0  0  0  0  0  0  0  0  0
  -27.8024   -5.3830  -31.8813 C   0  0  0  0  0  0  0  0  0  0  0  0
  -28.2578   -4.8905  -30.7215 C   0  0  0  0  0  0  0  0  0  0  0  0
  -28.6964   -5.6502  -29.5041 C   0  0  0  0  0  0  0  0  0  0  0  0
  -29.6386   -5.4237  -28.5354 C   0  0  0  0  0  0  0  0  0  0  0  0
  1  2  2  3
  1  3  1  0
  2  4  1  0
  4  5  1  0
  5  6  1  0
  6  7  1  0
M  END
>  <name>  (12) 
Car Nac Nd0 Car Car Car Car

>  <indices>  (12) 
[0, 1, 2]

>  <dummy>  (12) 
2

>  <tasks>  (12) 
probe_placing close_aromatic_ring close_aromatic_ring close_aromatic_ring

>  <current_task>  (12) 
close_aromatic_ring

>  <prot_clashes>  (12) 
1

>  <NBS phar>  (12) 
0.2

>  <NBS_non-phar>  (12) 
0.8808979988098145

>  <NBS>  (12) 
1.0808979988098144

>  <source_stage>  (12) 
scored

>  <source_iter>  (12) 
3

>  <source_parent_mol>  (12) 
0

>  <source_scenario>  (12) 
1 0 0

>  <source_rank_in_scored_call>  (12) 
0

>  <source_current_task>  (12) 
close_aromatic_ring

>  <scenario>  (12) 
1 0 0

>  <rotatable_bond_torsions>  (12) 
0,1,3,4;1,3,4,5

>  <reason_to_skip>  (12) 
incorrect arom ring closing

$$$$

     RDKit          3D

  7  6  0  0  0  0  0  0  0  0999 V2000
  -27.8640   -7.4760  -31.1990 C   0  0  0  0  0  0  0  0  0  0  0  0
  -27.5380   -6.7190  -32.2850 N   0  0  0  0  0  0  0  0  0  0  0  0
  -27.6840   -8.8650  -31.2620 N   0  0  0  0  0  0  0  0  0  0  0  0
  -27.8024   -5.3830  -31.8813 C   0  0  0  0  0  0  0  0  0  0  0  0
  -28.2578   -4.8905  -30.7215 C   0  0  0  0  0  0  0  0  0  0  0  0
  -28.6964   -5.6502  -29.5041 C   0  0  0  0  0  0  0  0  0  0  0  0
  -29.2057   -5.0430  -28.4440 C   0  0  0  0  0  0  0  0  0  0  0  0
  1  2  2  3
  1  3  1  0
  2  4  1  0
  4  5  1  0
  5  6  1  0
  6  7  1  0
M  END
>  <name>  (13) 
Car Nac Nd0 Car Car Car Car

>  <indices>  (13) 
[0, 1, 2]

>  <dummy>  (13) 
2

>  <tasks>  (13) 
probe_placing close_aromatic_ring close_aromatic_ring close_aromatic_ring

>  <current_task>  (13) 
close_aromatic_ring

>  <prot_clashes>  (13) 
1

>  <NBS phar>  (13) 
0.2

>  <NBS_non-phar>  (13) 
0.8808979988098145

>  <NBS>  (13) 
1.0808979988098144

>  <source_stage>  (13) 
scored

>  <source_iter>  (13) 
3

>  <source_parent_mol>  (13) 
0

>  <source_scenario>  (13) 
1 0 0

>  <source_rank_in_scored_call>  (13) 
0

>  <source_current_task>  (13) 
close_aromatic_ring

>  <scenario>  (13) 
1 0 0

>  <rotatable_bond_torsions>  (13) 
0,1,3,4;1,3,4,5

>  <reason_to_skip>  (13) 
incorrect arom ring closing

$$$$

     RDKit          3D

  7  6  0  0  0  0  0  0  0  0999 V2000
  -27.8640   -7.4760  -31.1990 C   0  0  0  0  0  0  0  0  0  0  0  0
  -27.5380   -6.7190  -32.2850 N   0  0  0  0  0  0  0  0  0  0  0  0
  -27.6840   -8.8650  -31.2620 N   0  0  0  0  0  0  0  0  0  0  0  0
  -27.8024   -5.3830  -31.8813 C   0  0  0  0  0  0  0  0  0  0  0  0
  -28.2578   -4.8905  -30.7215 C   0  0  0  0  0  0  0  0  0  0  0  0
  -28.6964   -5.6502  -29.5041 C   0  0  0  0  0  0  0  0  0  0  0  0
  -28.6856   -7.0120  -29.3446 N   0  0  0  0  0  0  0  0  0  0  0  0
  1  2  2  3
  1  3  1  0
  2  4  1  0
  4  5  1  0
  5  6  1  0
  6  7  1  0
M  END
>  <name>  (14) 
Car Nac Nd0 Car Car Car Nd0

>  <indices>  (14) 
[0, 1, 2]

>  <dummy>  (14) 
2

>  <tasks>  (14) 
probe_placing close_aromatic_ring close_aromatic_ring close_aromatic_ring

>  <current_task>  (14) 
close_aromatic_ring

>  <prot_clashes>  (14) 
1

>  <NBS phar>  (14) 
0.2

>  <NBS_non-phar>  (14) 
0.8808979988098145

>  <NBS>  (14) 
1.0808979988098144

>  <source_stage>  (14) 
scored

>  <source_iter>  (14) 
3

>  <source_parent_mol>  (14) 
0

>  <source_scenario>  (14) 
1 0 0

>  <source_rank_in_scored_call>  (14) 
0

>  <source_current_task>  (14) 
close_aromatic_ring

>  <scenario>  (14) 
1 0 0

>  <rotatable_bond_torsions>  (14) 
0,1,3,4;1,3,4,5

>  <reason_to_skip>  (14) 
too many Car with no DBs

$$$$

     RDKit          3D

  7  6  0  0  0  0  0  0  0  0999 V2000
  -27.8640   -7.4760  -31.1990 C   0  0  0  0  0  0  0  0  0  0  0  0
  -27.5380   -6.7190  -32.2850 N   0  0  0  0  0  0  0  0  0  0  0  0
  -27.6840   -8.8650  -31.2620 N   0  0  0  0  0  0  0  0  0  0  0  0
  -27.8024   -5.3830  -31.8813 C   0  0  0  0  0  0  0  0  0  0  0  0
  -28.2578   -4.8905  -30.7215 C   0  0  0  0  0  0  0  0  0  0  0  0
  -28.6964   -5.6502  -29.5041 C   0  0  0  0  0  0  0  0  0  0  0  0
  -28.2132   -6.9061  -29.3325 N   0  0  0  0  0  0  0  0  0  0  0  0
  1  2  2  3
  1  3  1  0
  2  4  1  0
  4  5  1  0
  5  6  1  0
  6  7  1  0
M  END
>  <name>  (15) 
Car Nac Nd0 Car Car Car Nac

>  <indices>  (15) 
[0, 1, 2]

>  <dummy>  (15) 
2

>  <tasks>  (15) 
probe_placing close_aromatic_ring close_aromatic_ring close_aromatic_ring

>  <current_task>  (15) 
close_aromatic_ring

>  <prot_clashes>  (15) 
1

>  <NBS phar>  (15) 
0.2

>  <NBS_non-phar>  (15) 
0.8808979988098145

>  <NBS>  (15) 
1.0808979988098144

>  <source_stage>  (15) 
scored

>  <source_iter>  (15) 
3

>  <source_parent_mol>  (15) 
0

>  <source_scenario>  (15) 
1 0 0

>  <source_rank_in_scored_call>  (15) 
0

>  <source_current_task>  (15) 
close_aromatic_ring

>  <scenario>  (15) 
1 0 0

>  <rotatable_bond_torsions>  (15) 
0,1,3,4;1,3,4,5

>  <reason_to_skip>  (15) 
incorrect arom ring closing

$$$$

     RDKit          3D

  7  6  0  0  0  0  0  0  0  0999 V2000
  -27.8640   -7.4760  -31.1990 C   0  0  0  0  0  0  0  0  0  0  0  0
  -27.5380   -6.7190  -32.2850 N   0  0  0  0  0  0  0  0  0  0  0  0
  -27.6840   -8.8650  -31.2620 N   0  0  0  0  0  0  0  0  0  0  0  0
  -27.8024   -5.3830  -31.8813 C   0  0  0  0  0  0  0  0  0  0  0  0
  -28.2578   -4.8905  -30.7215 C   0  0  0  0  0  0  0  0  0  0  0  0
  -28.6964   -5.6502  -29.5041 C   0  0  0  0  0  0  0  0  0  0  0  0
  -29.5185   -5.3431  -28.4940 C   0  0  0  0  0  0  0  0  0  0  0  0
  1  2  2  3
  1  3  1  0
  2  4  1  0
  4  5  1  0
  5  6  1  0
  6  7  2  0
M  END
>  <name>  (16) 
Car Nac Nd0 Car Car Car Car

>  <indices>  (16) 
[0, 1, 2]

>  <dummy>  (16) 
2

>  <tasks>  (16) 
probe_placing close_aromatic_ring close_aromatic_ring close_aromatic_ring

>  <current_task>  (16) 
close_aromatic_ring

>  <prot_clashes>  (16) 
1

>  <NBS phar>  (16) 
0.2

>  <NBS_non-phar>  (16) 
0.8808979988098145

>  <NBS>  (16) 
1.0808979988098144

>  <source_stage>  (16) 
scored

>  <source_iter>  (16) 
3

>  <source_parent_mol>  (16) 
0

>  <source_scenario>  (16) 
1 0 0

>  <source_rank_in_scored_call>  (16) 
0

>  <source_current_task>  (16) 
close_aromatic_ring

>  <scenario>  (16) 
1 0 0

>  <rotatable_bond_torsions>  (16) 
0,1,3,4;1,3,4,5

>  <reason_to_skip>  (16) 
incorrect arom ring closing

$$$$

     RDKit          3D

  7  6  0  0  0  0  0  0  0  0999 V2000
  -27.8640   -7.4760  -31.1990 C   0  0  0  0  0  0  0  0  0  0  0  0
  -27.5380   -6.7190  -32.2850 N   0  0  0  0  0  0  0  0  0  0  0  0
  -27.6840   -8.8650  -31.2620 N   0  0  0  0  0  0  0  0  0  0  0  0
  -27.8024   -5.3830  -31.8813 C   0  0  0  0  0  0  0  0  0  0  0  0
  -28.2578   -4.8905  -30.7215 C   0  0  0  0  0  0  0  0  0  0  0  0
  -28.6964   -5.6502  -29.5041 C   0  0  0  0  0  0  0  0  0  0  0  0
  -29.6414   -5.3224  -28.6781 N   0  0  0  0  0  0  0  0  0  0  0  0
  1  2  2  3
  1  3  1  0
  2  4  1  0
  4  5  1  0
  5  6  1  0
  6  7  1  0
M  END
>  <name>  (17) 
Car Nac Nd0 Car Car Car Nac

>  <indices>  (17) 
[0, 1, 2]

>  <dummy>  (17) 
2

>  <tasks>  (17) 
probe_placing close_aromatic_ring close_aromatic_ring close_aromatic_ring

>  <current_task>  (17) 
close_aromatic_ring

>  <prot_clashes>  (17) 
1

>  <NBS phar>  (17) 
0.2

>  <NBS_non-phar>  (17) 
0.8808979988098145

>  <NBS>  (17) 
1.0808979988098144

>  <source_stage>  (17) 
scored

>  <source_iter>  (17) 
3

>  <source_parent_mol>  (17) 
0

>  <source_scenario>  (17) 
1 0 0

>  <source_rank_in_scored_call>  (17) 
0

>  <source_current_task>  (17) 
close_aromatic_ring

>  <scenario>  (17) 
1 0 0

>  <rotatable_bond_torsions>  (17) 
0,1,3,4;1,3,4,5

>  <reason_to_skip>  (17) 
incorrect arom ring closing

$$$$

     RDKit          3D

  7  6  0  0  0  0  0  0  0  0999 V2000
  -27.8640   -7.4760  -31.1990 C   0  0  0  0  0  0  0  0  0  0  0  0
  -27.5380   -6.7190  -32.2850 N   0  0  0  0  0  0  0  0  0  0  0  0
  -27.6840   -8.8650  -31.2620 N   0  0  0  0  0  0  0  0  0  0  0  0
  -27.8024   -5.3830  -31.8813 C   0  0  0  0  0  0  0  0  0  0  0  0
  -28.2578   -4.8905  -30.7215 C   0  0  0  0  0  0  0  0  0  0  0  0
  -28.6964   -5.6502  -29.5041 C   0  0  0  0  0  0  0  0  0  0  0  0
  -28.2321   -6.9330  -29.1971 C   0  0  0  0  0  0  0  0  0  0  0  0
  1  2  2  3
  1  3  1  0
  2  4  1  0
  4  5  1  0
  5  6  1  0
  6  7  2  0
M  END
>  <name>  (18) 
Car Nac Nd0 Car Car Car Car

>  <indices>  (18) 
[0, 1, 2]

>  <dummy>  (18) 
2

>  <tasks>  (18) 
probe_placing close_aromatic_ring close_aromatic_ring close_aromatic_ring

>  <current_task>  (18) 
close_aromatic_ring

>  <prot_clashes>  (18) 
1

>  <NBS phar>  (18) 
0.2

>  <NBS_non-phar>  (18) 
0.8808979988098145

>  <NBS>  (18) 
1.0808979988098144

>  <source_stage>  (18) 
scored

>  <source_iter>  (18) 
3

>  <source_parent_mol>  (18) 
0

>  <source_scenario>  (18) 
1 0 0

>  <source_rank_in_scored_call>  (18) 
0

>  <source_current_task>  (18) 
close_aromatic_ring

>  <scenario>  (18) 
1 0 0

>  <rotatable_bond_torsions>  (18) 
0,1,3,4;1,3,4,5

>  <reason_to_skip>  (18) 
incorrect arom ring closing

$$$$

     RDKit          3D

  7  6  0  0  0  0  0  0  0  0999 V2000
  -27.8640   -7.4760  -31.1990 C   0  0  0  0  0  0  0  0  0  0  0  0
  -27.5380   -6.7190  -32.2850 N   0  0  0  0  0  0  0  0  0  0  0  0
  -27.6840   -8.8650  -31.2620 N   0  0  0  0  0  0  0  0  0  0  0  0
  -27.8024   -5.3830  -31.8813 C   0  0  0  0  0  0  0  0  0  0  0  0
  -28.2578   -4.8905  -30.7215 C   0  0  0  0  0  0  0  0  0  0  0  0
  -28.6964   -5.6502  -29.5041 C   0  0  0  0  0  0  0  0  0  0  0  0
  -29.1370   -5.1236  -28.4153 N   0  0  0  0  0  0  0  0  0  0  0  0
  1  2  2  3
  1  3  1  0
  2  4  1  0
  4  5  1  0
  5  6  1  0
  6  7  2  0
M  END
>  <name>  (19) 
Car Nac Nd0 Car Car Car Nac

>  <indices>  (19) 
[0, 1, 2]

>  <dummy>  (19) 
2

>  <tasks>  (19) 
probe_placing close_aromatic_ring close_aromatic_ring close_aromatic_ring

>  <current_task>  (19) 
close_aromatic_ring

>  <prot_clashes>  (19) 
1

>  <NBS phar>  (19) 
0.2

>  <NBS_non-phar>  (19) 
0.8808979988098145

>  <NBS>  (19) 
1.0808979988098144

>  <source_stage>  (19) 
scored

>  <source_iter>  (19) 
3

>  <source_parent_mol>  (19) 
0

>  <source_scenario>  (19) 
1 0 0

>  <source_rank_in_scored_call>  (19) 
0

>  <source_current_task>  (19) 
close_aromatic_ring

>  <scenario>  (19) 
1 0 0

>  <rotatable_bond_torsions>  (19) 
0,1,3,4;1,3,4,5

>  <reason_to_skip>  (19) 
incorrect arom ring closing

$$$$

     RDKit          3D

  7  7  0  0  0  0  0  0  0  0999 V2000
  -28.0535   -7.5775  -31.1373 C   0  0  0  0  0  0  0  0  0  0  0  0
  -27.6413   -6.6914  -32.0916 N   0  0  0  0  0  0  0  0  0  0  0  0
  -27.6840   -8.8650  -31.2620 N   0  0  0  0  0  0  0  0  0  0  0  0
  -27.5559   -5.3309  -31.7397 C   0  0  0  0  0  0  0  0  0  0  0  0
  -28.5367   -4.8603  -30.8341 C   0  0  0  0  0  0  0  0  0  0  0  0
  -28.5879   -5.7378  -29.5749 C   0  0  0  0  0  0  0  0  0  0  0  0
  -28.3707   -6.9293  -29.8687 N   0  0  0  0  0  0  0  0  0  0  0  0
  1  2  2  0
  1  3  1  0
  2  4  1  0
  4  5  1  0
  5  6  1  0
  6  7  2  0
  1  7  1  0
M  END
>  <name>  (20) 
Car Nac Nd0 Car Car Car Nac

>  <indices>  (20) 
[0, 1, 2]

>  <dummy>  (20) 
2

>  <tasks>  (20) 
probe_placing close_aromatic_ring close_aromatic_ring close_aromatic_ring

>  <current_task>  (20) 
close_aromatic_ring

>  <prot_clashes>  (20) 
1

>  <NBS phar>  (20) 
0.2

>  <NBS_non-phar>  (20) 
0.8808979988098145

>  <NBS>  (20) 
1.0808979988098144

>  <source_stage>  (20) 
scored

>  <source_iter>  (20) 
3

>  <source_parent_mol>  (20) 
0

>  <source_scenario>  (20) 
1 0 0

>  <source_rank_in_scored_call>  (20) 
0

>  <source_current_task>  (20) 
close_aromatic_ring

>  <scenario>  (20) 
1 0 0

>  <rotatable_bond_torsions>  (20) 
0,1,3,4;1,3,4,5

>  <reason_to_skip>  (20) 
Car-Nac-DB dihedral

$$$$

     RDKit          3D

  7  6  0  0  0  0  0  0  0  0999 V2000
  -27.8640   -7.4760  -31.1990 C   0  0  0  0  0  0  0  0  0  0  0  0
  -27.5380   -6.7190  -32.2850 N   0  0  0  0  0  0  0  0  0  0  0  0
  -27.6840   -8.8650  -31.2620 N   0  0  0  0  0  0  0  0  0  0  0  0
  -27.8024   -5.3830  -31.8813 C   0  0  0  0  0  0  0  0  0  0  0  0
  -28.2578   -4.8905  -30.7215 C   0  0  0  0  0  0  0  0  0  0  0  0
  -28.6964   -5.6502  -29.5041 C   0  0  0  0  0  0  0  0  0  0  0  0
  -29.1366   -5.0973  -28.4253 N   0  0  0  0  0  0  0  0  0  0  0  0
  1  2  2  3
  1  3  1  0
  2  4  1  0
  4  5  1  0
  5  6  1  0
  6  7  1  0
M  END
>  <name>  (21) 
Car Nac Nd0 Car Car Car Nd0

>  <indices>  (21) 
[0, 1, 2]

>  <dummy>  (21) 
2

>  <tasks>  (21) 
probe_placing close_aromatic_ring close_aromatic_ring close_aromatic_ring

>  <current_task>  (21) 
close_aromatic_ring

>  <prot_clashes>  (21) 
1

>  <NBS phar>  (21) 
0.2

>  <NBS_non-phar>  (21) 
0.8808979988098145

>  <NBS>  (21) 
1.0808979988098144

>  <source_stage>  (21) 
scored

>  <source_iter>  (21) 
3

>  <source_parent_mol>  (21) 
0

>  <source_scenario>  (21) 
1 0 0

>  <source_rank_in_scored_call>  (21) 
0

>  <source_current_task>  (21) 
close_aromatic_ring

>  <scenario>  (21) 
1 0 0

>  <rotatable_bond_torsions>  (21) 
0,1,3,4;1,3,4,5

>  <reason_to_skip>  (21) 
incorrect arom ring closing

$$$$

     RDKit          3D

  7  7  0  0  0  0  0  0  0  0999 V2000
  -27.8434   -7.4833  -31.0465 C   0  0  0  0  0  0  0  0  0  0  0  0
  -27.6308   -6.7211  -32.0539 N   0  0  0  0  0  0  0  0  0  0  0  0
  -27.6840   -8.8650  -31.2620 N   0  0  0  0  0  0  0  0  0  0  0  0
  -28.0344   -5.3366  -31.9902 C   0  0  0  0  0  0  0  0  0  0  0  0
  -27.9242   -4.8163  -30.5648 C   0  0  0  0  0  0  0  0  0  0  0  0
  -28.8663   -5.7036  -29.7452 C   0  0  0  0  0  0  0  0  0  0  0  0
  -28.4635   -7.0807  -29.8364 N   0  0  0  0  0  0  0  0  0  0  0  0
  1  2  2  0
  1  3  1  0
  2  4  1  0
  4  5  1  0
  5  6  1  0
  6  7  1  0
  1  7  1  0
M  END
>  <name>  (22) 
Car Nac Nd0 Car Car Car Nd0

>  <indices>  (22) 
[0, 1, 2]

>  <dummy>  (22) 
2

>  <tasks>  (22) 
probe_placing close_aromatic_ring close_aromatic_ring close_aromatic_ring

>  <current_task>  (22) 
close_aromatic_ring

>  <prot_clashes>  (22) 
1

>  <NBS phar>  (22) 
0.2

>  <NBS_non-phar>  (22) 
0.8808979988098145

>  <NBS>  (22) 
1.0808979988098144

>  <source_stage>  (22) 
scored

>  <source_iter>  (22) 
3

>  <source_parent_mol>  (22) 
0

>  <source_scenario>  (22) 
1 0 0

>  <source_rank_in_scored_call>  (22) 
0

>  <source_current_task>  (22) 
close_aromatic_ring

>  <scenario>  (22) 
1 0 0

>  <rotatable_bond_torsions>  (22) 
0,1,3,4;1,3,4,5

>  <reason_to_skip>  (22) 
too many Car with no DBs

$$$$

     RDKit          3D

  7  6  0  0  0  0  0  0  0  0999 V2000
  -27.8640   -7.4760  -31.1990 C   0  0  0  0  0  0  0  0  0  0  0  0
  -27.5380   -6.7190  -32.2850 N   0  0  0  0  0  0  0  0  0  0  0  0
  -27.6840   -8.8650  -31.2620 N   0  0  0  0  0  0  0  0  0  0  0  0
  -27.8024   -5.3830  -31.8813 C   0  0  0  0  0  0  0  0  0  0  0  0
  -28.2578   -4.8905  -30.7215 C   0  0  0  0  0  0  0  0  0  0  0  0
  -28.6964   -5.6502  -29.5041 C   0  0  0  0  0  0  0  0  0  0  0  0
  -29.2021   -5.0127  -28.2762 C   0  0  0  0  0  0  0  0  0  0  0  0
  1  2  2  3
  1  3  1  0
  2  4  1  0
  4  5  1  0
  5  6  1  0
  6  7  1  0
M  END
>  <name>  (23) 
Car Nac Nd0 Car Car Car Car

>  <indices>  (23) 
[0, 1, 2]

>  <dummy>  (23) 
2

>  <tasks>  (23) 
probe_placing close_aromatic_ring close_aromatic_ring close_aromatic_ring

>  <current_task>  (23) 
close_aromatic_ring

>  <prot_clashes>  (23) 
1

>  <NBS phar>  (23) 
0.2

>  <NBS_non-phar>  (23) 
0.8808979988098145

>  <NBS>  (23) 
1.0808979988098144

>  <source_stage>  (23) 
scored

>  <source_iter>  (23) 
3

>  <source_parent_mol>  (23) 
0

>  <source_scenario>  (23) 
1 0 0

>  <source_rank_in_scored_call>  (23) 
0

>  <source_current_task>  (23) 
close_aromatic_ring

>  <scenario>  (23) 
1 0 0

>  <rotatable_bond_torsions>  (23) 
0,1,3,4;1,3,4,5

>  <reason_to_skip>  (23) 
incorrect arom ring closing

$$$$

     RDKit          3D

  7  6  0  0  0  0  0  0  0  0999 V2000
  -27.8640   -7.4760  -31.1990 C   0  0  0  0  0  0  0  0  0  0  0  0
  -27.5380   -6.7190  -32.2850 N   0  0  0  0  0  0  0  0  0  0  0  0
  -27.6840   -8.8650  -31.2620 N   0  0  0  0  0  0  0  0  0  0  0  0
  -27.8024   -5.3830  -31.8813 C   0  0  0  0  0  0  0  0  0  0  0  0
  -28.2578   -4.8905  -30.7215 C   0  0  0  0  0  0  0  0  0  0  0  0
  -28.6964   -5.6502  -29.5041 C   0  0  0  0  0  0  0  0  0  0  0  0
  -28.6496   -7.0046  -29.5186 N   0  0  0  0  0  0  0  0  0  0  0  0
  1  2  2  3
  1  3  1  0
  2  4  1  0
  4  5  1  0
  5  6  1  0
  6  7  1  0
M  END
>  <name>  (24) 
Car Nac Nd0 Car Car Car Nd0

>  <indices>  (24) 
[0, 1, 2]

>  <dummy>  (24) 
2

>  <tasks>  (24) 
probe_placing close_aromatic_ring close_aromatic_ring close_aromatic_ring

>  <current_task>  (24) 
close_aromatic_ring

>  <prot_clashes>  (24) 
1

>  <NBS phar>  (24) 
0.2

>  <NBS_non-phar>  (24) 
0.8808979988098145

>  <NBS>  (24) 
1.0808979988098144

>  <source_stage>  (24) 
scored

>  <source_iter>  (24) 
3

>  <source_parent_mol>  (24) 
0

>  <source_scenario>  (24) 
1 0 0

>  <source_rank_in_scored_call>  (24) 
0

>  <source_current_task>  (24) 
close_aromatic_ring

>  <scenario>  (24) 
1 0 0

>  <rotatable_bond_torsions>  (24) 
0,1,3,4;1,3,4,5

>  <reason_to_skip>  (24) 
too many Car with no DBs

$$$$

     RDKit          3D

  7  6  0  0  0  0  0  0  0  0999 V2000
  -27.8640   -7.4760  -31.1990 C   0  0  0  0  0  0  0  0  0  0  0  0
  -27.5380   -6.7190  -32.2850 N   0  0  0  0  0  0  0  0  0  0  0  0
  -27.6840   -8.8650  -31.2620 N   0  0  0  0  0  0  0  0  0  0  0  0
  -27.8024   -5.3830  -31.8813 C   0  0  0  0  0  0  0  0  0  0  0  0
  -28.2578   -4.8905  -30.7215 C   0  0  0  0  0  0  0  0  0  0  0  0
  -28.6964   -5.6502  -29.5041 C   0  0  0  0  0  0  0  0  0  0  0  0
    0.0000    0.0000    0.0000 O   0  0  0  0  0  0  0  0  0  0  0  0
  1  2  2  3
  1  3  1  0
  2  4  1  0
  4  5  1  0
  5  6  1  0
  6  7  1  0
M  END
>  <name>  (25) 
Car Nac Nd0 Car Car Car O_a

>  <indices>  (25) 
[0, 1, 2]

>  <dummy>  (25) 
2

>  <tasks>  (25) 
probe_placing close_aromatic_ring close_aromatic_ring close_aromatic_ring

>  <current_task>  (25) 
close_aromatic_ring

>  <prot_clashes>  (25) 
1

>  <NBS phar>  (25) 
0.2

>  <NBS_non-phar>  (25) 
0.8808979988098145

>  <NBS>  (25) 
1.0808979988098144

>  <source_stage>  (25) 
scored

>  <source_iter>  (25) 
3

>  <source_parent_mol>  (25) 
0

>  <source_scenario>  (25) 
1 0 0

>  <source_rank_in_scored_call>  (25) 
0

>  <source_current_task>  (25) 
close_aromatic_ring

>  <scenario>  (25) 
1 0 0

>  <rotatable_bond_torsions>  (25) 
0,1,3,4;1,3,4,5

>  <reason_to_skip>  (25) 
some_atom_counter_exceeded

$$$$

     RDKit          3D

  7  6  0  0  0  0  0  0  0  0999 V2000
  -27.8640   -7.4760  -31.1990 C   0  0  0  0  0  0  0  0  0  0  0  0
  -27.5380   -6.7190  -32.2850 N   0  0  0  0  0  0  0  0  0  0  0  0
  -27.6840   -8.8650  -31.2620 N   0  0  0  0  0  0  0  0  0  0  0  0
  -27.8024   -5.3830  -31.8813 C   0  0  0  0  0  0  0  0  0  0  0  0
  -28.2578   -4.8905  -30.7215 C   0  0  0  0  0  0  0  0  0  0  0  0
  -28.6964   -5.6502  -29.5041 C   0  0  0  0  0  0  0  0  0  0  0  0
  -28.4160   -7.0142  -30.1479 C   0  0  0  0  0  0  0  0  0  0  0  0
  1  2  2  3
  1  3  1  0
  2  4  1  0
  4  5  1  0
  5  6  1  0
  6  7  2  0
M  END
>  <name>  (26) 
Car Nac Nd0 Car Car Car Car

>  <indices>  (26) 
[0, 1, 2]

>  <dummy>  (26) 
2

>  <tasks>  (26) 
probe_placing close_aromatic_ring close_aromatic_ring close_aromatic_ring

>  <current_task>  (26) 
close_aromatic_ring

>  <prot_clashes>  (26) 
1

>  <NBS phar>  (26) 
0.2

>  <NBS_non-phar>  (26) 
0.8808979988098145

>  <NBS>  (26) 
1.0808979988098144

>  <source_stage>  (26) 
scored

>  <source_iter>  (26) 
3

>  <source_parent_mol>  (26) 
0

>  <source_scenario>  (26) 
1 0 0

>  <source_rank_in_scored_call>  (26) 
0

>  <source_current_task>  (26) 
close_aromatic_ring

>  <scenario>  (26) 
1 0 0

>  <rotatable_bond_torsions>  (26) 
0,1,3,4;1,3,4,5

>  <reason_to_skip>  (26) 
bad angles

$$$$

     RDKit          3D

  7  6  0  0  0  0  0  0  0  0999 V2000
  -27.8640   -7.4760  -31.1990 C   0  0  0  0  0  0  0  0  0  0  0  0
  -27.5380   -6.7190  -32.2850 N   0  0  0  0  0  0  0  0  0  0  0  0
  -27.6840   -8.8650  -31.2620 N   0  0  0  0  0  0  0  0  0  0  0  0
  -27.8024   -5.3830  -31.8813 C   0  0  0  0  0  0  0  0  0  0  0  0
  -28.2578   -4.8905  -30.7215 C   0  0  0  0  0  0  0  0  0  0  0  0
  -28.6964   -5.6502  -29.5041 C   0  0  0  0  0  0  0  0  0  0  0  0
  -28.4164   -7.0248  -30.1613 C   0  0  0  0  0  0  0  0  0  0  0  0
  1  2  2  3
  1  3  1  0
  2  4  1  0
  4  5  1  0
  5  6  1  0
  6  7  1  0
M  END
>  <name>  (27) 
Car Nac Nd0 Car Car Car Car

>  <indices>  (27) 
[0, 1, 2]

>  <dummy>  (27) 
2

>  <tasks>  (27) 
probe_placing close_aromatic_ring close_aromatic_ring close_aromatic_ring

>  <current_task>  (27) 
close_aromatic_ring

>  <prot_clashes>  (27) 
1

>  <NBS phar>  (27) 
0.2

>  <NBS_non-phar>  (27) 
0.8808979988098145

>  <NBS>  (27) 
1.0808979988098144

>  <source_stage>  (27) 
scored

>  <source_iter>  (27) 
3

>  <source_parent_mol>  (27) 
0

>  <source_scenario>  (27) 
1 0 0

>  <source_rank_in_scored_call>  (27) 
0

>  <source_current_task>  (27) 
close_aromatic_ring

>  <scenario>  (27) 
1 0 0

>  <rotatable_bond_torsions>  (27) 
0,1,3,4;1,3,4,5

>  <reason_to_skip>  (27) 
bad angles

$$$$

     RDKit          3D

  7  6  0  0  0  0  0  0  0  0999 V2000
  -27.8640   -7.4760  -31.1990 C   0  0  0  0  0  0  0  0  0  0  0  0
  -27.5380   -6.7190  -32.2850 N   0  0  0  0  0  0  0  0  0  0  0  0
  -27.6840   -8.8650  -31.2620 N   0  0  0  0  0  0  0  0  0  0  0  0
  -27.8024   -5.3830  -31.8813 C   0  0  0  0  0  0  0  0  0  0  0  0
  -28.2578   -4.8905  -30.7215 C   0  0  0  0  0  0  0  0  0  0  0  0
  -28.6964   -5.6502  -29.5041 C   0  0  0  0  0  0  0  0  0  0  0  0
  -28.4016   -6.9868  -30.1821 N   0  0  0  0  0  0  0  0  0  0  0  0
  1  2  2  3
  1  3  1  0
  2  4  1  0
  4  5  1  0
  5  6  1  0
  6  7  1  0
M  END
>  <name>  (28) 
Car Nac Nd0 Car Car Car Nac

>  <indices>  (28) 
[0, 1, 2]

>  <dummy>  (28) 
2

>  <tasks>  (28) 
probe_placing close_aromatic_ring close_aromatic_ring close_aromatic_ring

>  <current_task>  (28) 
close_aromatic_ring

>  <prot_clashes>  (28) 
1

>  <NBS phar>  (28) 
0.2

>  <NBS_non-phar>  (28) 
0.8808979988098145

>  <NBS>  (28) 
1.0808979988098144

>  <source_stage>  (28) 
scored

>  <source_iter>  (28) 
3

>  <source_parent_mol>  (28) 
0

>  <source_scenario>  (28) 
1 0 0

>  <source_rank_in_scored_call>  (28) 
0

>  <source_current_task>  (28) 
close_aromatic_ring

>  <scenario>  (28) 
1 0 0

>  <rotatable_bond_torsions>  (28) 
0,1,3,4;1,3,4,5

>  <reason_to_skip>  (28) 
bad angles

$$$$

     RDKit          3D

  7  6  0  0  0  0  0  0  0  0999 V2000
  -27.8640   -7.4760  -31.1990 C   0  0  0  0  0  0  0  0  0  0  0  0
  -27.5380   -6.7190  -32.2850 N   0  0  0  0  0  0  0  0  0  0  0  0
  -27.6840   -8.8650  -31.2620 N   0  0  0  0  0  0  0  0  0  0  0  0
  -27.8024   -5.3830  -31.8813 C   0  0  0  0  0  0  0  0  0  0  0  0
  -28.2578   -4.8905  -30.7215 C   0  0  0  0  0  0  0  0  0  0  0  0
  -28.6964   -5.6502  -29.5041 C   0  0  0  0  0  0  0  0  0  0  0  0
  -28.4057   -6.9649  -30.1202 N   0  0  0  0  0  0  0  0  0  0  0  0
  1  2  2  3
  1  3  1  0
  2  4  1  0
  4  5  1  0
  5  6  1  0
  6  7  1  0
M  END
>  <name>  (29) 
Car Nac Nd0 Car Car Car Nd0

>  <indices>  (29) 
[0, 1, 2]

>  <dummy>  (29) 
2

>  <tasks>  (29) 
probe_placing close_aromatic_ring close_aromatic_ring close_aromatic_ring

>  <current_task>  (29) 
close_aromatic_ring

>  <prot_clashes>  (29) 
1

>  <NBS phar>  (29) 
0.2

>  <NBS_non-phar>  (29) 
0.8808979988098145

>  <NBS>  (29) 
1.0808979988098144

>  <source_stage>  (29) 
scored

>  <source_iter>  (29) 
3

>  <source_parent_mol>  (29) 
0

>  <source_scenario>  (29) 
1 0 0

>  <source_rank_in_scored_call>  (29) 
0

>  <source_current_task>  (29) 
close_aromatic_ring

>  <scenario>  (29) 
1 0 0

>  <rotatable_bond_torsions>  (29) 
0,1,3,4;1,3,4,5

>  <reason_to_skip>  (29) 
bad angles

$$$$

     RDKit          3D

  7  6  0  0  0  0  0  0  0  0999 V2000
  -27.8640   -7.4760  -31.1990 C   0  0  0  0  0  0  0  0  0  0  0  0
  -27.5380   -6.7190  -32.2850 N   0  0  0  0  0  0  0  0  0  0  0  0
  -27.6840   -8.8650  -31.2620 N   0  0  0  0  0  0  0  0  0  0  0  0
  -27.8024   -5.3830  -31.8813 C   0  0  0  0  0  0  0  0  0  0  0  0
  -28.2578   -4.8905  -30.7215 C   0  0  0  0  0  0  0  0  0  0  0  0
  -28.6964   -5.6502  -29.5041 C   0  0  0  0  0  0  0  0  0  0  0  0
  -27.9814   -5.6806  -28.2999 N   0  0  0  0  0  0  0  0  0  0  0  0
  1  2  2  3
  1  3  1  0
  2  4  1  0
  4  5  1  0
  5  6  1  0
  6  7  1  0
M  END
>  <name>  (30) 
Car Nac Nd0 Car Car Car Nac

>  <indices>  (30) 
[0, 1, 2]

>  <dummy>  (30) 
2

>  <tasks>  (30) 
probe_placing close_aromatic_ring close_aromatic_ring close_aromatic_ring

>  <current_task>  (30) 
close_aromatic_ring

>  <prot_clashes>  (30) 
1

>  <NBS phar>  (30) 
0.2

>  <NBS_non-phar>  (30) 
0.8808979988098145

>  <NBS>  (30) 
1.0808979988098144

>  <source_stage>  (30) 
scored

>  <source_iter>  (30) 
3

>  <source_parent_mol>  (30) 
0

>  <source_scenario>  (30) 
1 0 0

>  <source_rank_in_scored_call>  (30) 
0

>  <source_current_task>  (30) 
close_aromatic_ring

>  <scenario>  (30) 
1 0 0

>  <rotatable_bond_torsions>  (30) 
0,1,3,4;1,3,4,5

>  <reason_to_skip>  (30) 
incorrect arom ring closing

$$$$

     RDKit          3D

  7  6  0  0  0  0  0  0  0  0999 V2000
  -27.8640   -7.4760  -31.1990 C   0  0  0  0  0  0  0  0  0  0  0  0
  -27.5380   -6.7190  -32.2850 N   0  0  0  0  0  0  0  0  0  0  0  0
  -27.6840   -8.8650  -31.2620 N   0  0  0  0  0  0  0  0  0  0  0  0
  -27.8024   -5.3830  -31.8813 C   0  0  0  0  0  0  0  0  0  0  0  0
  -28.2578   -4.8905  -30.7215 C   0  0  0  0  0  0  0  0  0  0  0  0
  -28.6964   -5.6502  -29.5041 C   0  0  0  0  0  0  0  0  0  0  0  0
  -28.0881   -5.3779  -28.2546 C   0  0  0  0  0  0  0  0  0  0  0  0
  1  2  2  3
  1  3  1  0
  2  4  1  0
  4  5  1  0
  5  6  1  0
  6  7  1  0
M  END
>  <name>  (31) 
Car Nac Nd0 Car Car Car Car

>  <indices>  (31) 
[0, 1, 2]

>  <dummy>  (31) 
2

>  <tasks>  (31) 
probe_placing close_aromatic_ring close_aromatic_ring close_aromatic_ring

>  <current_task>  (31) 
close_aromatic_ring

>  <prot_clashes>  (31) 
1

>  <NBS phar>  (31) 
0.2

>  <NBS_non-phar>  (31) 
0.8808979988098145

>  <NBS>  (31) 
1.0808979988098144

>  <source_stage>  (31) 
scored

>  <source_iter>  (31) 
3

>  <source_parent_mol>  (31) 
0

>  <source_scenario>  (31) 
1 0 0

>  <source_rank_in_scored_call>  (31) 
0

>  <source_current_task>  (31) 
close_aromatic_ring

>  <scenario>  (31) 
1 0 0

>  <rotatable_bond_torsions>  (31) 
0,1,3,4;1,3,4,5

>  <reason_to_skip>  (31) 
incorrect arom ring closing

$$$$

     RDKit          3D

  7  6  0  0  0  0  0  0  0  0999 V2000
  -27.8640   -7.4760  -31.1990 C   0  0  0  0  0  0  0  0  0  0  0  0
  -27.5380   -6.7190  -32.2850 N   0  0  0  0  0  0  0  0  0  0  0  0
  -27.6840   -8.8650  -31.2620 N   0  0  0  0  0  0  0  0  0  0  0  0
  -27.8024   -5.3830  -31.8813 C   0  0  0  0  0  0  0  0  0  0  0  0
  -28.2578   -4.8905  -30.7215 C   0  0  0  0  0  0  0  0  0  0  0  0
  -28.6964   -5.6502  -29.5041 C   0  0  0  0  0  0  0  0  0  0  0  0
  -29.8495   -6.4585  -29.4561 N   0  0  0  0  0  0  0  0  0  0  0  0
  1  2  2  3
  1  3  1  0
  2  4  1  0
  4  5  1  0
  5  6  1  0
  6  7  1  0
M  END
>  <name>  (32) 
Car Nac Nd0 Car Car Car Nac

>  <indices>  (32) 
[0, 1, 2]

>  <dummy>  (32) 
2

>  <tasks>  (32) 
probe_placing close_aromatic_ring close_aromatic_ring close_aromatic_ring

>  <current_task>  (32) 
close_aromatic_ring

>  <prot_clashes>  (32) 
1

>  <NBS phar>  (32) 
0.2

>  <NBS_non-phar>  (32) 
0.8808979988098145

>  <NBS>  (32) 
1.0808979988098144

>  <source_stage>  (32) 
scored

>  <source_iter>  (32) 
3

>  <source_parent_mol>  (32) 
0

>  <source_scenario>  (32) 
1 0 0

>  <source_rank_in_scored_call>  (32) 
0

>  <source_current_task>  (32) 
close_aromatic_ring

>  <scenario>  (32) 
1 0 0

>  <rotatable_bond_torsions>  (32) 
0,1,3,4;1,3,4,5

>  <reason_to_skip>  (32) 
incorrect arom ring closing

$$$$

     RDKit          3D

  7  6  0  0  0  0  0  0  0  0999 V2000
  -27.8640   -7.4760  -31.1990 C   0  0  0  0  0  0  0  0  0  0  0  0
  -27.5380   -6.7190  -32.2850 N   0  0  0  0  0  0  0  0  0  0  0  0
  -27.6840   -8.8650  -31.2620 N   0  0  0  0  0  0  0  0  0  0  0  0
  -27.8024   -5.3830  -31.8813 C   0  0  0  0  0  0  0  0  0  0  0  0
  -28.2578   -4.8905  -30.7215 C   0  0  0  0  0  0  0  0  0  0  0  0
  -28.6964   -5.6502  -29.5041 C   0  0  0  0  0  0  0  0  0  0  0  0
  -28.0548   -5.6649  -28.3062 N   0  0  0  0  0  0  0  0  0  0  0  0
  1  2  2  3
  1  3  1  0
  2  4  1  0
  4  5  1  0
  5  6  1  0
  6  7  2  0
M  END
>  <name>  (33) 
Car Nac Nd0 Car Car Car Nac

>  <indices>  (33) 
[0, 1, 2]

>  <dummy>  (33) 
2

>  <tasks>  (33) 
probe_placing close_aromatic_ring close_aromatic_ring close_aromatic_ring

>  <current_task>  (33) 
close_aromatic_ring

>  <prot_clashes>  (33) 
1

>  <NBS phar>  (33) 
0.2

>  <NBS_non-phar>  (33) 
0.8808979988098145

>  <NBS>  (33) 
1.0808979988098144

>  <source_stage>  (33) 
scored

>  <source_iter>  (33) 
3

>  <source_parent_mol>  (33) 
0

>  <source_scenario>  (33) 
1 0 0

>  <source_rank_in_scored_call>  (33) 
0

>  <source_current_task>  (33) 
close_aromatic_ring

>  <scenario>  (33) 
1 0 0

>  <rotatable_bond_torsions>  (33) 
0,1,3,4;1,3,4,5

>  <reason_to_skip>  (33) 
incorrect arom ring closing

$$$$

     RDKit          3D

  7  6  0  0  0  0  0  0  0  0999 V2000
  -27.8640   -7.4760  -31.1990 C   0  0  0  0  0  0  0  0  0  0  0  0
  -27.5380   -6.7190  -32.2850 N   0  0  0  0  0  0  0  0  0  0  0  0
  -27.6840   -8.8650  -31.2620 N   0  0  0  0  0  0  0  0  0  0  0  0
  -27.8024   -5.3830  -31.8813 C   0  0  0  0  0  0  0  0  0  0  0  0
  -28.2578   -4.8905  -30.7215 C   0  0  0  0  0  0  0  0  0  0  0  0
  -28.6964   -5.6502  -29.5041 C   0  0  0  0  0  0  0  0  0  0  0  0
  -28.1168   -5.5454  -28.2786 N   0  0  0  0  0  0  0  0  0  0  0  0
  1  2  2  3
  1  3  1  0
  2  4  1  0
  4  5  1  0
  5  6  1  0
  6  7  1  0
M  END
>  <name>  (34) 
Car Nac Nd0 Car Car Car Nd0

>  <indices>  (34) 
[0, 1, 2]

>  <dummy>  (34) 
2

>  <tasks>  (34) 
probe_placing close_aromatic_ring close_aromatic_ring close_aromatic_ring

>  <current_task>  (34) 
close_aromatic_ring

>  <prot_clashes>  (34) 
1

>  <NBS phar>  (34) 
0.2

>  <NBS_non-phar>  (34) 
0.8808979988098145

>  <NBS>  (34) 
1.0808979988098144

>  <source_stage>  (34) 
scored

>  <source_iter>  (34) 
3

>  <source_parent_mol>  (34) 
0

>  <source_scenario>  (34) 
1 0 0

>  <source_rank_in_scored_call>  (34) 
0

>  <source_current_task>  (34) 
close_aromatic_ring

>  <scenario>  (34) 
1 0 0

>  <rotatable_bond_torsions>  (34) 
0,1,3,4;1,3,4,5

>  <reason_to_skip>  (34) 
incorrect arom ring closing

$$$$

     RDKit          3D

  7  6  0  0  0  0  0  0  0  0999 V2000
  -27.8640   -7.4760  -31.1990 C   0  0  0  0  0  0  0  0  0  0  0  0
  -27.5380   -6.7190  -32.2850 N   0  0  0  0  0  0  0  0  0  0  0  0
  -27.6840   -8.8650  -31.2620 N   0  0  0  0  0  0  0  0  0  0  0  0
  -27.8024   -5.3830  -31.8813 C   0  0  0  0  0  0  0  0  0  0  0  0
  -28.2578   -4.8905  -30.7215 C   0  0  0  0  0  0  0  0  0  0  0  0
  -28.6964   -5.6502  -29.5041 C   0  0  0  0  0  0  0  0  0  0  0  0
    0.0000    0.0000    0.0000 O   0  0  0  0  0  0  0  0  0  0  0  0
  1  2  2  3
  1  3  1  0
  2  4  1  0
  4  5  1  0
  5  6  1  0
  6  7  1  0
M  END
>  <name>  (35) 
Car Nac Nd0 Car Car Car O_a

>  <indices>  (35) 
[0, 1, 2]

>  <dummy>  (35) 
2

>  <tasks>  (35) 
probe_placing close_aromatic_ring close_aromatic_ring close_aromatic_ring

>  <current_task>  (35) 
close_aromatic_ring

>  <prot_clashes>  (35) 
1

>  <NBS phar>  (35) 
0.2

>  <NBS_non-phar>  (35) 
0.8808979988098145

>  <NBS>  (35) 
1.0808979988098144

>  <source_stage>  (35) 
scored

>  <source_iter>  (35) 
3

>  <source_parent_mol>  (35) 
0

>  <source_scenario>  (35) 
1 0 0

>  <source_rank_in_scored_call>  (35) 
0

>  <source_current_task>  (35) 
close_aromatic_ring

>  <scenario>  (35) 
1 0 0

>  <rotatable_bond_torsions>  (35) 
0,1,3,4;1,3,4,5

>  <reason_to_skip>  (35) 
some_atom_counter_exceeded

$$$$

     RDKit          3D

  7  6  0  0  0  0  0  0  0  0999 V2000
  -27.8640   -7.4760  -31.1990 C   0  0  0  0  0  0  0  0  0  0  0  0
  -27.5380   -6.7190  -32.2850 N   0  0  0  0  0  0  0  0  0  0  0  0
  -27.6840   -8.8650  -31.2620 N   0  0  0  0  0  0  0  0  0  0  0  0
  -27.8024   -5.3830  -31.8813 C   0  0  0  0  0  0  0  0  0  0  0  0
  -28.2578   -4.8905  -30.7215 C   0  0  0  0  0  0  0  0  0  0  0  0
  -28.6964   -5.6502  -29.5041 C   0  0  0  0  0  0  0  0  0  0  0  0
  -29.8849   -6.3849  -29.3453 C   0  0  0  0  0  0  0  0  0  0  0  0
  1  2  2  3
  1  3  1  0
  2  4  1  0
  4  5  1  0
  5  6  1  0
  6  7  2  0
M  END
>  <name>  (36) 
Car Nac Nd0 Car Car Car Car

>  <indices>  (36) 
[0, 1, 2]

>  <dummy>  (36) 
2

>  <tasks>  (36) 
probe_placing close_aromatic_ring close_aromatic_ring close_aromatic_ring

>  <current_task>  (36) 
close_aromatic_ring

>  <prot_clashes>  (36) 
1

>  <NBS phar>  (36) 
0.2

>  <NBS_non-phar>  (36) 
0.8808979988098145

>  <NBS>  (36) 
1.0808979988098144

>  <source_stage>  (36) 
scored

>  <source_iter>  (36) 
3

>  <source_parent_mol>  (36) 
0

>  <source_scenario>  (36) 
1 0 0

>  <source_rank_in_scored_call>  (36) 
0

>  <source_current_task>  (36) 
close_aromatic_ring

>  <scenario>  (36) 
1 0 0

>  <rotatable_bond_torsions>  (36) 
0,1,3,4;1,3,4,5

>  <reason_to_skip>  (36) 
incorrect arom ring closing

$$$$

     RDKit          3D

  7  6  0  0  0  0  0  0  0  0999 V2000
  -27.8640   -7.4760  -31.1990 C   0  0  0  0  0  0  0  0  0  0  0  0
  -27.5380   -6.7190  -32.2850 N   0  0  0  0  0  0  0  0  0  0  0  0
  -27.6840   -8.8650  -31.2620 N   0  0  0  0  0  0  0  0  0  0  0  0
  -27.8024   -5.3830  -31.8813 C   0  0  0  0  0  0  0  0  0  0  0  0
  -28.2578   -4.8905  -30.7215 C   0  0  0  0  0  0  0  0  0  0  0  0
  -28.6964   -5.6502  -29.5041 C   0  0  0  0  0  0  0  0  0  0  0  0
  -27.9404   -5.6947  -28.3687 C   0  0  0  0  0  0  0  0  0  0  0  0
  1  2  2  3
  1  3  1  0
  2  4  1  0
  4  5  1  0
  5  6  1  0
  6  7  1  0
M  END
>  <name>  (37) 
Car Nac Nd0 Car Car Car Car

>  <indices>  (37) 
[0, 1, 2]

>  <dummy>  (37) 
2

>  <tasks>  (37) 
probe_placing close_aromatic_ring close_aromatic_ring close_aromatic_ring

>  <current_task>  (37) 
close_aromatic_ring

>  <prot_clashes>  (37) 
1

>  <NBS phar>  (37) 
0.2

>  <NBS_non-phar>  (37) 
0.8808979988098145

>  <NBS>  (37) 
1.0808979988098144

>  <source_stage>  (37) 
scored

>  <source_iter>  (37) 
3

>  <source_parent_mol>  (37) 
0

>  <source_scenario>  (37) 
1 0 0

>  <source_rank_in_scored_call>  (37) 
0

>  <source_current_task>  (37) 
close_aromatic_ring

>  <scenario>  (37) 
1 0 0

>  <rotatable_bond_torsions>  (37) 
0,1,3,4;1,3,4,5

>  <reason_to_skip>  (37) 
incorrect arom ring closing

$$$$

     RDKit          3D

  7  6  0  0  0  0  0  0  0  0999 V2000
  -27.8640   -7.4760  -31.1990 C   0  0  0  0  0  0  0  0  0  0  0  0
  -27.5380   -6.7190  -32.2850 N   0  0  0  0  0  0  0  0  0  0  0  0
  -27.6840   -8.8650  -31.2620 N   0  0  0  0  0  0  0  0  0  0  0  0
  -27.8024   -5.3830  -31.8813 C   0  0  0  0  0  0  0  0  0  0  0  0
  -28.2578   -4.8905  -30.7215 C   0  0  0  0  0  0  0  0  0  0  0  0
  -28.6964   -5.6502  -29.5041 C   0  0  0  0  0  0  0  0  0  0  0  0
  -27.7809   -6.2749  -28.6709 C   0  0  0  0  0  0  0  0  0  0  0  0
  1  2  2  3
  1  3  1  0
  2  4  1  0
  4  5  1  0
  5  6  1  0
  6  7  2  0
M  END
>  <name>  (38) 
Car Nac Nd0 Car Car Car Car

>  <indices>  (38) 
[0, 1, 2]

>  <dummy>  (38) 
2

>  <tasks>  (38) 
probe_placing close_aromatic_ring close_aromatic_ring close_aromatic_ring

>  <current_task>  (38) 
close_aromatic_ring

>  <prot_clashes>  (38) 
1

>  <NBS phar>  (38) 
0.2

>  <NBS_non-phar>  (38) 
0.8808979988098145

>  <NBS>  (38) 
1.0808979988098144

>  <source_stage>  (38) 
scored

>  <source_iter>  (38) 
3

>  <source_parent_mol>  (38) 
0

>  <source_scenario>  (38) 
1 0 0

>  <source_rank_in_scored_call>  (38) 
0

>  <source_current_task>  (38) 
close_aromatic_ring

>  <scenario>  (38) 
1 0 0

>  <rotatable_bond_torsions>  (38) 
0,1,3,4;1,3,4,5

>  <reason_to_skip>  (38) 
incorrect arom ring closing

$$$$

     RDKit          3D

  7  6  0  0  0  0  0  0  0  0999 V2000
  -27.8640   -7.4760  -31.1990 C   0  0  0  0  0  0  0  0  0  0  0  0
  -27.5380   -6.7190  -32.2850 N   0  0  0  0  0  0  0  0  0  0  0  0
  -27.6840   -8.8650  -31.2620 N   0  0  0  0  0  0  0  0  0  0  0  0
  -27.8024   -5.3830  -31.8813 C   0  0  0  0  0  0  0  0  0  0  0  0
  -28.2578   -4.8905  -30.7215 C   0  0  0  0  0  0  0  0  0  0  0  0
  -28.6964   -5.6502  -29.5041 C   0  0  0  0  0  0  0  0  0  0  0  0
    0.0000    0.0000    0.0000 S   0  0  0  0  0  0  0  0  0  0  0  0
  1  2  2  3
  1  3  1  0
  2  4  1  0
  4  5  1  0
  5  6  1  0
  6  7  1  0
M  END
>  <name>  (39) 
Car Nac Nd0 Car Car Car Sul

>  <indices>  (39) 
[0, 1, 2]

>  <dummy>  (39) 
2

>  <tasks>  (39) 
probe_placing close_aromatic_ring close_aromatic_ring close_aromatic_ring

>  <current_task>  (39) 
close_aromatic_ring

>  <prot_clashes>  (39) 
1

>  <NBS phar>  (39) 
0.2

>  <NBS_non-phar>  (39) 
0.8808979988098145

>  <NBS>  (39) 
1.0808979988098144

>  <source_stage>  (39) 
scored

>  <source_iter>  (39) 
3

>  <source_parent_mol>  (39) 
0

>  <source_scenario>  (39) 
1 0 0

>  <source_rank_in_scored_call>  (39) 
0

>  <source_current_task>  (39) 
close_aromatic_ring

>  <scenario>  (39) 
1 0 0

>  <rotatable_bond_torsions>  (39) 
0,1,3,4;1,3,4,5

>  <reason_to_skip>  (39) 
some_atom_counter_exceeded

$$$$

     RDKit          3D

  7  6  0  0  0  0  0  0  0  0999 V2000
  -27.8640   -7.4760  -31.1990 C   0  0  0  0  0  0  0  0  0  0  0  0
  -27.5380   -6.7190  -32.2850 N   0  0  0  0  0  0  0  0  0  0  0  0
  -27.6840   -8.8650  -31.2620 N   0  0  0  0  0  0  0  0  0  0  0  0
  -27.8024   -5.3830  -31.8813 C   0  0  0  0  0  0  0  0  0  0  0  0
  -28.2578   -4.8905  -30.7215 C   0  0  0  0  0  0  0  0  0  0  0  0
  -28.6964   -5.6502  -29.5041 C   0  0  0  0  0  0  0  0  0  0  0  0
    0.0000    0.0000    0.0000 S   0  0  0  0  0  0  0  0  0  0  0  0
  1  2  2  3
  1  3  1  0
  2  4  1  0
  4  5  1  0
  5  6  1  0
  6  7  1  0
M  END
>  <name>  (40) 
Car Nac Nd0 Car Car Car Sul

>  <indices>  (40) 
[0, 1, 2]

>  <dummy>  (40) 
2

>  <tasks>  (40) 
probe_placing close_aromatic_ring close_aromatic_ring close_aromatic_ring

>  <current_task>  (40) 
close_aromatic_ring

>  <prot_clashes>  (40) 
1

>  <NBS phar>  (40) 
0.2

>  <NBS_non-phar>  (40) 
0.8808979988098145

>  <NBS>  (40) 
1.0808979988098144

>  <source_stage>  (40) 
scored

>  <source_iter>  (40) 
3

>  <source_parent_mol>  (40) 
0

>  <source_scenario>  (40) 
1 0 0

>  <source_rank_in_scored_call>  (40) 
0

>  <source_current_task>  (40) 
close_aromatic_ring

>  <scenario>  (40) 
1 0 0

>  <rotatable_bond_torsions>  (40) 
0,1,3,4;1,3,4,5

>  <reason_to_skip>  (40) 
some_atom_counter_exceeded

$$$$

     RDKit          3D

  7  6  0  0  0  0  0  0  0  0999 V2000
  -27.8640   -7.4760  -31.1990 C   0  0  0  0  0  0  0  0  0  0  0  0
  -27.5380   -6.7190  -32.2850 N   0  0  0  0  0  0  0  0  0  0  0  0
  -27.6840   -8.8650  -31.2620 N   0  0  0  0  0  0  0  0  0  0  0  0
  -27.8024   -5.3830  -31.8813 C   0  0  0  0  0  0  0  0  0  0  0  0
  -28.2578   -4.8905  -30.7215 C   0  0  0  0  0  0  0  0  0  0  0  0
  -28.6964   -5.6502  -29.5041 C   0  0  0  0  0  0  0  0  0  0  0  0
  -28.7860   -7.0261  -29.3257 N   0  0  0  0  0  0  0  0  0  0  0  0
  1  2  2  3
  1  3  1  0
  2  4  1  0
  4  5  1  0
  5  6  1  0
  6  7  1  0
M  END
>  <name>  (41) 
Car Nac Nd0 Car Car Car Nac

>  <indices>  (41) 
[0, 1, 2]

>  <dummy>  (41) 
2

>  <tasks>  (41) 
probe_placing close_aromatic_ring close_aromatic_ring close_aromatic_ring

>  <current_task>  (41) 
close_aromatic_ring

>  <prot_clashes>  (41) 
1

>  <NBS phar>  (41) 
0.2

>  <NBS_non-phar>  (41) 
0.8808979988098145

>  <NBS>  (41) 
1.0808979988098144

>  <source_stage>  (41) 
scored

>  <source_iter>  (41) 
3

>  <source_parent_mol>  (41) 
0

>  <source_scenario>  (41) 
1 0 0

>  <source_rank_in_scored_call>  (41) 
0

>  <source_current_task>  (41) 
close_aromatic_ring

>  <scenario>  (41) 
1 0 0

>  <rotatable_bond_torsions>  (41) 
0,1,3,4;1,3,4,5

>  <reason_to_skip>  (41) 
too many Car with no DBs

$$$$

     RDKit          3D

  7  6  0  0  0  0  0  0  0  0999 V2000
  -27.8640   -7.4760  -31.1990 C   0  0  0  0  0  0  0  0  0  0  0  0
  -27.5380   -6.7190  -32.2850 N   0  0  0  0  0  0  0  0  0  0  0  0
  -27.6840   -8.8650  -31.2620 N   0  0  0  0  0  0  0  0  0  0  0  0
  -27.8024   -5.3830  -31.8813 C   0  0  0  0  0  0  0  0  0  0  0  0
  -28.2578   -4.8905  -30.7215 C   0  0  0  0  0  0  0  0  0  0  0  0
  -28.6964   -5.6502  -29.5041 C   0  0  0  0  0  0  0  0  0  0  0  0
  -28.5838   -5.1068  -28.3210 N   0  0  0  0  0  0  0  0  0  0  0  0
  1  2  2  3
  1  3  1  0
  2  4  1  0
  4  5  1  0
  5  6  1  0
  6  7  2  0
M  END
>  <name>  (42) 
Car Nac Nd0 Car Car Car Nac

>  <indices>  (42) 
[0, 1, 2]

>  <dummy>  (42) 
2

>  <tasks>  (42) 
probe_placing close_aromatic_ring close_aromatic_ring close_aromatic_ring

>  <current_task>  (42) 
close_aromatic_ring

>  <prot_clashes>  (42) 
1

>  <NBS phar>  (42) 
0.2

>  <NBS_non-phar>  (42) 
0.8808979988098145

>  <NBS>  (42) 
1.0808979988098144

>  <source_stage>  (42) 
scored

>  <source_iter>  (42) 
3

>  <source_parent_mol>  (42) 
0

>  <source_scenario>  (42) 
1 0 0

>  <source_rank_in_scored_call>  (42) 
0

>  <source_current_task>  (42) 
close_aromatic_ring

>  <scenario>  (42) 
1 0 0

>  <rotatable_bond_torsions>  (42) 
0,1,3,4;1,3,4,5

>  <reason_to_skip>  (42) 
incorrect arom ring closing

$$$$

     RDKit          3D

  7  6  0  0  0  0  0  0  0  0999 V2000
  -27.8640   -7.4760  -31.1990 C   0  0  0  0  0  0  0  0  0  0  0  0
  -27.5380   -6.7190  -32.2850 N   0  0  0  0  0  0  0  0  0  0  0  0
  -27.6840   -8.8650  -31.2620 N   0  0  0  0  0  0  0  0  0  0  0  0
  -27.8024   -5.3830  -31.8813 C   0  0  0  0  0  0  0  0  0  0  0  0
  -28.2578   -4.8905  -30.7215 C   0  0  0  0  0  0  0  0  0  0  0  0
  -28.6964   -5.6502  -29.5041 C   0  0  0  0  0  0  0  0  0  0  0  0
    0.0000    0.0000    0.0000 O   0  0  0  0  0  0  0  0  0  0  0  0
  1  2  2  3
  1  3  1  0
  2  4  1  0
  4  5  1  0
  5  6  1  0
  6  7  1  0
M  END
>  <name>  (43) 
Car Nac Nd0 Car Car Car O_a

>  <indices>  (43) 
[0, 1, 2]

>  <dummy>  (43) 
2

>  <tasks>  (43) 
probe_placing close_aromatic_ring close_aromatic_ring close_aromatic_ring

>  <current_task>  (43) 
close_aromatic_ring

>  <prot_clashes>  (43) 
1

>  <NBS phar>  (43) 
0.2

>  <NBS_non-phar>  (43) 
0.8808979988098145

>  <NBS>  (43) 
1.0808979988098144

>  <source_stage>  (43) 
scored

>  <source_iter>  (43) 
3

>  <source_parent_mol>  (43) 
0

>  <source_scenario>  (43) 
1 0 0

>  <source_rank_in_scored_call>  (43) 
0

>  <source_current_task>  (43) 
close_aromatic_ring

>  <scenario>  (43) 
1 0 0

>  <rotatable_bond_torsions>  (43) 
0,1,3,4;1,3,4,5

>  <reason_to_skip>  (43) 
some_atom_counter_exceeded

$$$$

     RDKit          3D

  7  6  0  0  0  0  0  0  0  0999 V2000
  -27.8640   -7.4760  -31.1990 C   0  0  0  0  0  0  0  0  0  0  0  0
  -27.5380   -6.7190  -32.2850 N   0  0  0  0  0  0  0  0  0  0  0  0
  -27.6840   -8.8650  -31.2620 N   0  0  0  0  0  0  0  0  0  0  0  0
  -27.8024   -5.3830  -31.8813 C   0  0  0  0  0  0  0  0  0  0  0  0
  -28.2578   -4.8905  -30.7215 C   0  0  0  0  0  0  0  0  0  0  0  0
  -28.6964   -5.6502  -29.5041 C   0  0  0  0  0  0  0  0  0  0  0  0
    0.0000    0.0000    0.0000 O   0  0  0  0  0  0  0  0  0  0  0  0
  1  2  2  3
  1  3  1  0
  2  4  1  0
  4  5  1  0
  5  6  1  0
  6  7  1  0
M  END
>  <name>  (44) 
Car Nac Nd0 Car Car Car O_a

>  <indices>  (44) 
[0, 1, 2]

>  <dummy>  (44) 
2

>  <tasks>  (44) 
probe_placing close_aromatic_ring close_aromatic_ring close_aromatic_ring

>  <current_task>  (44) 
close_aromatic_ring

>  <prot_clashes>  (44) 
1

>  <NBS phar>  (44) 
0.2

>  <NBS_non-phar>  (44) 
0.8808979988098145

>  <NBS>  (44) 
1.0808979988098144

>  <source_stage>  (44) 
scored

>  <source_iter>  (44) 
3

>  <source_parent_mol>  (44) 
0

>  <source_scenario>  (44) 
1 0 0

>  <source_rank_in_scored_call>  (44) 
0

>  <source_current_task>  (44) 
close_aromatic_ring

>  <scenario>  (44) 
1 0 0

>  <rotatable_bond_torsions>  (44) 
0,1,3,4;1,3,4,5

>  <reason_to_skip>  (44) 
some_atom_counter_exceeded

$$$$

     RDKit          3D

  7  6  0  0  0  0  0  0  0  0999 V2000
  -27.8640   -7.4760  -31.1990 C   0  0  0  0  0  0  0  0  0  0  0  0
  -27.5380   -6.7190  -32.2850 N   0  0  0  0  0  0  0  0  0  0  0  0
  -27.6840   -8.8650  -31.2620 N   0  0  0  0  0  0  0  0  0  0  0  0
  -27.8024   -5.3830  -31.8813 C   0  0  0  0  0  0  0  0  0  0  0  0
  -28.2578   -4.8905  -30.7215 C   0  0  0  0  0  0  0  0  0  0  0  0
  -28.6964   -5.6502  -29.5041 C   0  0  0  0  0  0  0  0  0  0  0  0
  -30.1625   -5.8221  -28.6508 C   0  0  0  0  0  0  0  0  0  0  0  0
  1  2  2  3
  1  3  1  0
  2  4  1  0
  4  5  1  0
  5  6  1  0
  6  7  1  0
M  END
>  <name>  (45) 
Car Nac Nd0 Car Car Car Car

>  <indices>  (45) 
[0, 1, 2]

>  <dummy>  (45) 
2

>  <tasks>  (45) 
probe_placing close_aromatic_ring close_aromatic_ring close_aromatic_ring

>  <current_task>  (45) 
close_aromatic_ring

>  <prot_clashes>  (45) 
1

>  <NBS phar>  (45) 
0.2

>  <NBS_non-phar>  (45) 
0.8808979988098145

>  <NBS>  (45) 
1.0808979988098144

>  <source_stage>  (45) 
scored

>  <source_iter>  (45) 
3

>  <source_parent_mol>  (45) 
0

>  <source_scenario>  (45) 
1 0 0

>  <source_rank_in_scored_call>  (45) 
0

>  <source_current_task>  (45) 
close_aromatic_ring

>  <scenario>  (45) 
1 0 0

>  <rotatable_bond_torsions>  (45) 
0,1,3,4;1,3,4,5

>  <reason_to_skip>  (45) 
bad angles

$$$$

     RDKit          3D

  7  6  0  0  0  0  0  0  0  0999 V2000
  -27.8640   -7.4760  -31.1990 C   0  0  0  0  0  0  0  0  0  0  0  0
  -27.5380   -6.7190  -32.2850 N   0  0  0  0  0  0  0  0  0  0  0  0
  -27.6840   -8.8650  -31.2620 N   0  0  0  0  0  0  0  0  0  0  0  0
  -27.8024   -5.3830  -31.8813 C   0  0  0  0  0  0  0  0  0  0  0  0
  -28.2578   -4.8905  -30.7215 C   0  0  0  0  0  0  0  0  0  0  0  0
  -28.6964   -5.6502  -29.5041 C   0  0  0  0  0  0  0  0  0  0  0  0
    0.0000    0.0000    0.0000 S   0  0  0  0  0  0  0  0  0  0  0  0
  1  2  2  3
  1  3  1  0
  2  4  1  0
  4  5  1  0
  5  6  1  0
  6  7  1  0
M  END
>  <name>  (46) 
Car Nac Nd0 Car Car Car Sul

>  <indices>  (46) 
[0, 1, 2]

>  <dummy>  (46) 
2

>  <tasks>  (46) 
probe_placing close_aromatic_ring close_aromatic_ring close_aromatic_ring

>  <current_task>  (46) 
close_aromatic_ring

>  <prot_clashes>  (46) 
1

>  <NBS phar>  (46) 
0.2

>  <NBS_non-phar>  (46) 
0.8808979988098145

>  <NBS>  (46) 
1.0808979988098144

>  <source_stage>  (46) 
scored

>  <source_iter>  (46) 
3

>  <source_parent_mol>  (46) 
0

>  <source_scenario>  (46) 
1 0 0

>  <source_rank_in_scored_call>  (46) 
0

>  <source_current_task>  (46) 
close_aromatic_ring

>  <scenario>  (46) 
1 0 0

>  <rotatable_bond_torsions>  (46) 
0,1,3,4;1,3,4,5

>  <reason_to_skip>  (46) 
some_atom_counter_exceeded

$$$$

     RDKit          3D

  7  6  0  0  0  0  0  0  0  0999 V2000
  -27.8640   -7.4760  -31.1990 C   0  0  0  0  0  0  0  0  0  0  0  0
  -27.5380   -6.7190  -32.2850 N   0  0  0  0  0  0  0  0  0  0  0  0
  -27.6840   -8.8650  -31.2620 N   0  0  0  0  0  0  0  0  0  0  0  0
  -27.8024   -5.3830  -31.8813 C   0  0  0  0  0  0  0  0  0  0  0  0
  -28.2578   -4.8905  -30.7215 C   0  0  0  0  0  0  0  0  0  0  0  0
  -28.6964   -5.6502  -29.5041 C   0  0  0  0  0  0  0  0  0  0  0  0
  -27.6355   -5.7242  -28.6599 N   0  0  0  0  0  0  0  0  0  0  0  0
  1  2  2  3
  1  3  1  0
  2  4  1  0
  4  5  1  0
  5  6  1  0
  6  7  1  0
M  END
>  <name>  (47) 
Car Nac Nd0 Car Car Car Nd0

>  <indices>  (47) 
[0, 1, 2]

>  <dummy>  (47) 
2

>  <tasks>  (47) 
probe_placing close_aromatic_ring close_aromatic_ring close_aromatic_ring

>  <current_task>  (47) 
close_aromatic_ring

>  <prot_clashes>  (47) 
1

>  <NBS phar>  (47) 
0.2

>  <NBS_non-phar>  (47) 
0.8808979988098145

>  <NBS>  (47) 
1.0808979988098144

>  <source_stage>  (47) 
scored

>  <source_iter>  (47) 
3

>  <source_parent_mol>  (47) 
0

>  <source_scenario>  (47) 
1 0 0

>  <source_rank_in_scored_call>  (47) 
0

>  <source_current_task>  (47) 
close_aromatic_ring

>  <scenario>  (47) 
1 0 0

>  <rotatable_bond_torsions>  (47) 
0,1,3,4;1,3,4,5

>  <reason_to_skip>  (47) 
incorrect arom ring closing

$$$$

     RDKit          3D

  7  6  0  0  0  0  0  0  0  0999 V2000
  -27.8640   -7.4760  -31.1990 C   0  0  0  0  0  0  0  0  0  0  0  0
  -27.5380   -6.7190  -32.2850 N   0  0  0  0  0  0  0  0  0  0  0  0
  -27.6840   -8.8650  -31.2620 N   0  0  0  0  0  0  0  0  0  0  0  0
  -27.8024   -5.3830  -31.8813 C   0  0  0  0  0  0  0  0  0  0  0  0
  -28.2578   -4.8905  -30.7215 C   0  0  0  0  0  0  0  0  0  0  0  0
  -28.6964   -5.6502  -29.5041 C   0  0  0  0  0  0  0  0  0  0  0  0
    0.0000    0.0000    0.0000 S   0  0  0  0  0  0  0  0  0  0  0  0
  1  2  2  3
  1  3  1  0
  2  4  1  0
  4  5  1  0
  5  6  1  0
  6  7  1  0
M  END
>  <name>  (48) 
Car Nac Nd0 Car Car Car Sul

>  <indices>  (48) 
[0, 1, 2]

>  <dummy>  (48) 
2

>  <tasks>  (48) 
probe_placing close_aromatic_ring close_aromatic_ring close_aromatic_ring

>  <current_task>  (48) 
close_aromatic_ring

>  <prot_clashes>  (48) 
1

>  <NBS phar>  (48) 
0.2

>  <NBS_non-phar>  (48) 
0.8808979988098145

>  <NBS>  (48) 
1.0808979988098144

>  <source_stage>  (48) 
scored

>  <source_iter>  (48) 
3

>  <source_parent_mol>  (48) 
0

>  <source_scenario>  (48) 
1 0 0

>  <source_rank_in_scored_call>  (48) 
0

>  <source_current_task>  (48) 
close_aromatic_ring

>  <scenario>  (48) 
1 0 0

>  <rotatable_bond_torsions>  (48) 
0,1,3,4;1,3,4,5

>  <reason_to_skip>  (48) 
some_atom_counter_exceeded

$$$$

     RDKit          3D

  7  6  0  0  0  0  0  0  0  0999 V2000
  -27.8640   -7.4760  -31.1990 C   0  0  0  0  0  0  0  0  0  0  0  0
  -27.5380   -6.7190  -32.2850 N   0  0  0  0  0  0  0  0  0  0  0  0
  -27.6840   -8.8650  -31.2620 N   0  0  0  0  0  0  0  0  0  0  0  0
  -27.8024   -5.3830  -31.8813 C   0  0  0  0  0  0  0  0  0  0  0  0
  -28.2578   -4.8905  -30.7215 C   0  0  0  0  0  0  0  0  0  0  0  0
  -28.6964   -5.6502  -29.5041 C   0  0  0  0  0  0  0  0  0  0  0  0
    0.0000    0.0000    0.0000 S   0  0  0  0  0  0  0  0  0  0  0  0
  1  2  2  3
  1  3  1  0
  2  4  1  0
  4  5  1  0
  5  6  1  0
  6  7  1  0
M  END
>  <name>  (49) 
Car Nac Nd0 Car Car Car Sul

>  <indices>  (49) 
[0, 1, 2]

>  <dummy>  (49) 
2

>  <tasks>  (49) 
probe_placing close_aromatic_ring close_aromatic_ring close_aromatic_ring

>  <current_task>  (49) 
close_aromatic_ring

>  <prot_clashes>  (49) 
1

>  <NBS phar>  (49) 
0.2

>  <NBS_non-phar>  (49) 
0.8808979988098145

>  <NBS>  (49) 
1.0808979988098144

>  <source_stage>  (49) 
scored

>  <source_iter>  (49) 
3

>  <source_parent_mol>  (49) 
0

>  <source_scenario>  (49) 
1 0 0

>  <source_rank_in_scored_call>  (49) 
0

>  <source_current_task>  (49) 
close_aromatic_ring

>  <scenario>  (49) 
1 0 0

>  <rotatable_bond_torsions>  (49) 
0,1,3,4;1,3,4,5

>  <reason_to_skip>  (49) 
some_atom_counter_exceeded

$$$$

     RDKit          3D

  7  6  0  0  0  0  0  0  0  0999 V2000
  -27.8640   -7.4760  -31.1990 C   0  0  0  0  0  0  0  0  0  0  0  0
  -27.5380   -6.7190  -32.2850 N   0  0  0  0  0  0  0  0  0  0  0  0
  -27.6840   -8.8650  -31.2620 N   0  0  0  0  0  0  0  0  0  0  0  0
  -27.8024   -5.3830  -31.8813 C   0  0  0  0  0  0  0  0  0  0  0  0
  -28.2578   -4.8905  -30.7215 C   0  0  0  0  0  0  0  0  0  0  0  0
  -28.6964   -5.6502  -29.5041 C   0  0  0  0  0  0  0  0  0  0  0  0
    0.0000    0.0000    0.0000 S   0  0  0  0  0  0  0  0  0  0  0  0
  1  2  2  3
  1  3  1  0
  2  4  1  0
  4  5  1  0
  5  6  1  0
  6  7  1  0
M  END
>  <name>  (50) 
Car Nac Nd0 Car Car Car Sul

>  <indices>  (50) 
[0, 1, 2]

>  <dummy>  (50) 
2

>  <tasks>  (50) 
probe_placing close_aromatic_ring close_aromatic_ring close_aromatic_ring

>  <current_task>  (50) 
close_aromatic_ring

>  <prot_clashes>  (50) 
1

>  <NBS phar>  (50) 
0.2

>  <NBS_non-phar>  (50) 
0.8808979988098145

>  <NBS>  (50) 
1.0808979988098144

>  <source_stage>  (50) 
scored

>  <source_iter>  (50) 
3

>  <source_parent_mol>  (50) 
0

>  <source_scenario>  (50) 
1 0 0

>  <source_rank_in_scored_call>  (50) 
0

>  <source_current_task>  (50) 
close_aromatic_ring

>  <scenario>  (50) 
1 0 0

>  <rotatable_bond_torsions>  (50) 
0,1,3,4;1,3,4,5

>  <reason_to_skip>  (50) 
some_atom_counter_exceeded

$$$$

     RDKit          3D

  7  6  0  0  0  0  0  0  0  0999 V2000
  -27.8640   -7.4760  -31.1990 C   0  0  0  0  0  0  0  0  0  0  0  0
  -27.5380   -6.7190  -32.2850 N   0  0  0  0  0  0  0  0  0  0  0  0
  -27.6840   -8.8650  -31.2620 N   0  0  0  0  0  0  0  0  0  0  0  0
  -27.8024   -5.3830  -31.8813 C   0  0  0  0  0  0  0  0  0  0  0  0
  -28.2578   -4.8905  -30.7215 C   0  0  0  0  0  0  0  0  0  0  0  0
  -28.6964   -5.6502  -29.5041 C   0  0  0  0  0  0  0  0  0  0  0  0
  -29.9655   -5.8952  -29.0726 N   0  0  0  0  0  0  0  0  0  0  0  0
  1  2  2  3
  1  3  1  0
  2  4  1  0
  4  5  1  0
  5  6  1  0
  6  7  2  0
M  END
>  <name>  (51) 
Car Nac Nd0 Car Car Car Nac

>  <indices>  (51) 
[0, 1, 2]

>  <dummy>  (51) 
2

>  <tasks>  (51) 
probe_placing close_aromatic_ring close_aromatic_ring close_aromatic_ring

>  <current_task>  (51) 
close_aromatic_ring

>  <prot_clashes>  (51) 
1

>  <NBS phar>  (51) 
0.2

>  <NBS_non-phar>  (51) 
0.8808979988098145

>  <NBS>  (51) 
1.0808979988098144

>  <source_stage>  (51) 
scored

>  <source_iter>  (51) 
3

>  <source_parent_mol>  (51) 
0

>  <source_scenario>  (51) 
1 0 0

>  <source_rank_in_scored_call>  (51) 
0

>  <source_current_task>  (51) 
close_aromatic_ring

>  <scenario>  (51) 
1 0 0

>  <rotatable_bond_torsions>  (51) 
0,1,3,4;1,3,4,5

>  <reason_to_skip>  (51) 
incorrect arom ring closing

$$$$

     RDKit          3D

  7  6  0  0  0  0  0  0  0  0999 V2000
  -27.8640   -7.4760  -31.1990 C   0  0  0  0  0  0  0  0  0  0  0  0
  -27.5380   -6.7190  -32.2850 N   0  0  0  0  0  0  0  0  0  0  0  0
  -27.6840   -8.8650  -31.2620 N   0  0  0  0  0  0  0  0  0  0  0  0
  -27.8024   -5.3830  -31.8813 C   0  0  0  0  0  0  0  0  0  0  0  0
  -28.2578   -4.8905  -30.7215 C   0  0  0  0  0  0  0  0  0  0  0  0
  -28.6964   -5.6502  -29.5041 C   0  0  0  0  0  0  0  0  0  0  0  0
  -30.0069   -6.1488  -29.4498 C   0  0  0  0  0  0  0  0  0  0  0  0
  1  2  2  3
  1  3  1  0
  2  4  1  0
  4  5  1  0
  5  6  1  0
  6  7  1  0
M  END
>  <name>  (52) 
Car Nac Nd0 Car Car Car Car

>  <indices>  (52) 
[0, 1, 2]

>  <dummy>  (52) 
2

>  <tasks>  (52) 
probe_placing close_aromatic_ring close_aromatic_ring close_aromatic_ring

>  <current_task>  (52) 
close_aromatic_ring

>  <prot_clashes>  (52) 
1

>  <NBS phar>  (52) 
0.2

>  <NBS_non-phar>  (52) 
0.8808979988098145

>  <NBS>  (52) 
1.0808979988098144

>  <source_stage>  (52) 
scored

>  <source_iter>  (52) 
3

>  <source_parent_mol>  (52) 
0

>  <source_scenario>  (52) 
1 0 0

>  <source_rank_in_scored_call>  (52) 
0

>  <source_current_task>  (52) 
close_aromatic_ring

>  <scenario>  (52) 
1 0 0

>  <rotatable_bond_torsions>  (52) 
0,1,3,4;1,3,4,5

>  <reason_to_skip>  (52) 
incorrect arom ring closing

$$$$

     RDKit          3D

  7  6  0  0  0  0  0  0  0  0999 V2000
  -27.8640   -7.4760  -31.1990 C   0  0  0  0  0  0  0  0  0  0  0  0
  -27.5380   -6.7190  -32.2850 N   0  0  0  0  0  0  0  0  0  0  0  0
  -27.6840   -8.8650  -31.2620 N   0  0  0  0  0  0  0  0  0  0  0  0
  -27.8024   -5.3830  -31.8813 C   0  0  0  0  0  0  0  0  0  0  0  0
  -28.2578   -4.8905  -30.7215 C   0  0  0  0  0  0  0  0  0  0  0  0
  -28.6964   -5.6502  -29.5041 C   0  0  0  0  0  0  0  0  0  0  0  0
  -29.9218   -6.3356  -29.4949 C   0  0  0  0  0  0  0  0  0  0  0  0
  1  2  2  3
  1  3  1  0
  2  4  1  0
  4  5  1  0
  5  6  1  0
  6  7  1  0
M  END
>  <name>  (53) 
Car Nac Nd0 Car Car Car Car

>  <indices>  (53) 
[0, 1, 2]

>  <dummy>  (53) 
2

>  <tasks>  (53) 
probe_placing close_aromatic_ring close_aromatic_ring close_aromatic_ring

>  <current_task>  (53) 
close_aromatic_ring

>  <prot_clashes>  (53) 
1

>  <NBS phar>  (53) 
0.2

>  <NBS_non-phar>  (53) 
0.8808979988098145

>  <NBS>  (53) 
1.0808979988098144

>  <source_stage>  (53) 
scored

>  <source_iter>  (53) 
3

>  <source_parent_mol>  (53) 
0

>  <source_scenario>  (53) 
1 0 0

>  <source_rank_in_scored_call>  (53) 
0

>  <source_current_task>  (53) 
close_aromatic_ring

>  <scenario>  (53) 
1 0 0

>  <rotatable_bond_torsions>  (53) 
0,1,3,4;1,3,4,5

>  <reason_to_skip>  (53) 
incorrect arom ring closing

$$$$

     RDKit          3D

  7  6  0  0  0  0  0  0  0  0999 V2000
  -27.8640   -7.4760  -31.1990 C   0  0  0  0  0  0  0  0  0  0  0  0
  -27.5380   -6.7190  -32.2850 N   0  0  0  0  0  0  0  0  0  0  0  0
  -27.6840   -8.8650  -31.2620 N   0  0  0  0  0  0  0  0  0  0  0  0
  -27.8024   -5.3830  -31.8813 C   0  0  0  0  0  0  0  0  0  0  0  0
  -28.2578   -4.8905  -30.7215 C   0  0  0  0  0  0  0  0  0  0  0  0
  -28.6964   -5.6502  -29.5041 C   0  0  0  0  0  0  0  0  0  0  0  0
  -27.9219   -5.8216  -28.4031 N   0  0  0  0  0  0  0  0  0  0  0  0
  1  2  2  3
  1  3  1  0
  2  4  1  0
  4  5  1  0
  5  6  1  0
  6  7  1  0
M  END
>  <name>  (54) 
Car Nac Nd0 Car Car Car Nd0

>  <indices>  (54) 
[0, 1, 2]

>  <dummy>  (54) 
2

>  <tasks>  (54) 
probe_placing close_aromatic_ring close_aromatic_ring close_aromatic_ring

>  <current_task>  (54) 
close_aromatic_ring

>  <prot_clashes>  (54) 
1

>  <NBS phar>  (54) 
0.2

>  <NBS_non-phar>  (54) 
0.8808979988098145

>  <NBS>  (54) 
1.0808979988098144

>  <source_stage>  (54) 
scored

>  <source_iter>  (54) 
3

>  <source_parent_mol>  (54) 
0

>  <source_scenario>  (54) 
1 0 0

>  <source_rank_in_scored_call>  (54) 
0

>  <source_current_task>  (54) 
close_aromatic_ring

>  <scenario>  (54) 
1 0 0

>  <rotatable_bond_torsions>  (54) 
0,1,3,4;1,3,4,5

>  <reason_to_skip>  (54) 
incorrect arom ring closing

$$$$

     RDKit          3D

  7  6  0  0  0  0  0  0  0  0999 V2000
  -27.8640   -7.4760  -31.1990 C   0  0  0  0  0  0  0  0  0  0  0  0
  -27.5380   -6.7190  -32.2850 N   0  0  0  0  0  0  0  0  0  0  0  0
  -27.6840   -8.8650  -31.2620 N   0  0  0  0  0  0  0  0  0  0  0  0
  -27.8024   -5.3830  -31.8813 C   0  0  0  0  0  0  0  0  0  0  0  0
  -28.2578   -4.8905  -30.7215 C   0  0  0  0  0  0  0  0  0  0  0  0
  -28.6964   -5.6502  -29.5041 C   0  0  0  0  0  0  0  0  0  0  0  0
  -28.0290   -5.7486  -28.3268 N   0  0  0  0  0  0  0  0  0  0  0  0
  1  2  2  3
  1  3  1  0
  2  4  1  0
  4  5  1  0
  5  6  1  0
  6  7  1  0
M  END
>  <name>  (55) 
Car Nac Nd0 Car Car Car Nac

>  <indices>  (55) 
[0, 1, 2]

>  <dummy>  (55) 
2

>  <tasks>  (55) 
probe_placing close_aromatic_ring close_aromatic_ring close_aromatic_ring

>  <current_task>  (55) 
close_aromatic_ring

>  <prot_clashes>  (55) 
1

>  <NBS phar>  (55) 
0.2

>  <NBS_non-phar>  (55) 
0.8808979988098145

>  <NBS>  (55) 
1.0808979988098144

>  <source_stage>  (55) 
scored

>  <source_iter>  (55) 
3

>  <source_parent_mol>  (55) 
0

>  <source_scenario>  (55) 
1 0 0

>  <source_rank_in_scored_call>  (55) 
0

>  <source_current_task>  (55) 
close_aromatic_ring

>  <scenario>  (55) 
1 0 0

>  <rotatable_bond_torsions>  (55) 
0,1,3,4;1,3,4,5

>  <reason_to_skip>  (55) 
incorrect arom ring closing

$$$$

     RDKit          3D

  7  6  0  0  0  0  0  0  0  0999 V2000
  -27.8640   -7.4760  -31.1990 C   0  0  0  0  0  0  0  0  0  0  0  0
  -27.5380   -6.7190  -32.2850 N   0  0  0  0  0  0  0  0  0  0  0  0
  -27.6840   -8.8650  -31.2620 N   0  0  0  0  0  0  0  0  0  0  0  0
  -27.8024   -5.3830  -31.8813 C   0  0  0  0  0  0  0  0  0  0  0  0
  -28.2578   -4.8905  -30.7215 C   0  0  0  0  0  0  0  0  0  0  0  0
  -28.6964   -5.6502  -29.5041 C   0  0  0  0  0  0  0  0  0  0  0  0
    0.0000    0.0000    0.0000 S   0  0  0  0  0  0  0  0  0  0  0  0
  1  2  2  3
  1  3  1  0
  2  4  1  0
  4  5  1  0
  5  6  1  0
  6  7  1  0
M  END
>  <name>  (56) 
Car Nac Nd0 Car Car Car Sul

>  <indices>  (56) 
[0, 1, 2]

>  <dummy>  (56) 
2

>  <tasks>  (56) 
probe_placing close_aromatic_ring close_aromatic_ring close_aromatic_ring

>  <current_task>  (56) 
close_aromatic_ring

>  <prot_clashes>  (56) 
1

>  <NBS phar>  (56) 
0.2

>  <NBS_non-phar>  (56) 
0.8808979988098145

>  <NBS>  (56) 
1.0808979988098144

>  <source_stage>  (56) 
scored

>  <source_iter>  (56) 
3

>  <source_parent_mol>  (56) 
0

>  <source_scenario>  (56) 
1 0 0

>  <source_rank_in_scored_call>  (56) 
0

>  <source_current_task>  (56) 
close_aromatic_ring

>  <scenario>  (56) 
1 0 0

>  <rotatable_bond_torsions>  (56) 
0,1,3,4;1,3,4,5

>  <reason_to_skip>  (56) 
some_atom_counter_exceeded

$$$$

     RDKit          3D

  7  6  0  0  0  0  0  0  0  0999 V2000
  -27.8640   -7.4760  -31.1990 C   0  0  0  0  0  0  0  0  0  0  0  0
  -27.5380   -6.7190  -32.2850 N   0  0  0  0  0  0  0  0  0  0  0  0
  -27.6840   -8.8650  -31.2620 N   0  0  0  0  0  0  0  0  0  0  0  0
  -27.8024   -5.3830  -31.8813 C   0  0  0  0  0  0  0  0  0  0  0  0
  -28.2578   -4.8905  -30.7215 C   0  0  0  0  0  0  0  0  0  0  0  0
  -28.6964   -5.6502  -29.5041 C   0  0  0  0  0  0  0  0  0  0  0  0
    0.0000    0.0000    0.0000 S   0  0  0  0  0  0  0  0  0  0  0  0
  1  2  2  3
  1  3  1  0
  2  4  1  0
  4  5  1  0
  5  6  1  0
  6  7  1  0
M  END
>  <name>  (57) 
Car Nac Nd0 Car Car Car Sul

>  <indices>  (57) 
[0, 1, 2]

>  <dummy>  (57) 
2

>  <tasks>  (57) 
probe_placing close_aromatic_ring close_aromatic_ring close_aromatic_ring

>  <current_task>  (57) 
close_aromatic_ring

>  <prot_clashes>  (57) 
1

>  <NBS phar>  (57) 
0.2

>  <NBS_non-phar>  (57) 
0.8808979988098145

>  <NBS>  (57) 
1.0808979988098144

>  <source_stage>  (57) 
scored

>  <source_iter>  (57) 
3

>  <source_parent_mol>  (57) 
0

>  <source_scenario>  (57) 
1 0 0

>  <source_rank_in_scored_call>  (57) 
0

>  <source_current_task>  (57) 
close_aromatic_ring

>  <scenario>  (57) 
1 0 0

>  <rotatable_bond_torsions>  (57) 
0,1,3,4;1,3,4,5

>  <reason_to_skip>  (57) 
some_atom_counter_exceeded

$$$$

     RDKit          3D

  7  6  0  0  0  0  0  0  0  0999 V2000
  -27.8640   -7.4760  -31.1990 C   0  0  0  0  0  0  0  0  0  0  0  0
  -27.5380   -6.7190  -32.2850 N   0  0  0  0  0  0  0  0  0  0  0  0
  -27.6840   -8.8650  -31.2620 N   0  0  0  0  0  0  0  0  0  0  0  0
  -27.8024   -5.3830  -31.8813 C   0  0  0  0  0  0  0  0  0  0  0  0
  -28.2578   -4.8905  -30.7215 C   0  0  0  0  0  0  0  0  0  0  0  0
  -28.6964   -5.6502  -29.5041 C   0  0  0  0  0  0  0  0  0  0  0  0
  -29.9082   -5.7010  -29.2202 N   0  0  0  0  0  0  0  0  0  0  0  0
  1  2  2  3
  1  3  1  0
  2  4  1  0
  4  5  1  0
  5  6  1  0
  6  7  1  0
M  END
>  <name>  (58) 
Car Nac Nd0 Car Car Car Nd0

>  <indices>  (58) 
[0, 1, 2]

>  <dummy>  (58) 
2

>  <tasks>  (58) 
probe_placing close_aromatic_ring close_aromatic_ring close_aromatic_ring

>  <current_task>  (58) 
close_aromatic_ring

>  <prot_clashes>  (58) 
1

>  <NBS phar>  (58) 
0.2

>  <NBS_non-phar>  (58) 
0.8808979988098145

>  <NBS>  (58) 
1.0808979988098144

>  <source_stage>  (58) 
scored

>  <source_iter>  (58) 
3

>  <source_parent_mol>  (58) 
0

>  <source_scenario>  (58) 
1 0 0

>  <source_rank_in_scored_call>  (58) 
0

>  <source_current_task>  (58) 
close_aromatic_ring

>  <scenario>  (58) 
1 0 0

>  <rotatable_bond_torsions>  (58) 
0,1,3,4;1,3,4,5

>  <reason_to_skip>  (58) 
incorrect arom ring closing

$$$$

     RDKit          3D

  7  6  0  0  0  0  0  0  0  0999 V2000
  -27.8640   -7.4760  -31.1990 C   0  0  0  0  0  0  0  0  0  0  0  0
  -27.5380   -6.7190  -32.2850 N   0  0  0  0  0  0  0  0  0  0  0  0
  -27.6840   -8.8650  -31.2620 N   0  0  0  0  0  0  0  0  0  0  0  0
  -27.8024   -5.3830  -31.8813 C   0  0  0  0  0  0  0  0  0  0  0  0
  -28.2578   -4.8905  -30.7215 C   0  0  0  0  0  0  0  0  0  0  0  0
  -28.6964   -5.6502  -29.5041 C   0  0  0  0  0  0  0  0  0  0  0  0
    0.0000    0.0000    0.0000 O   0  0  0  0  0  0  0  0  0  0  0  0
  1  2  2  3
  1  3  1  0
  2  4  1  0
  4  5  1  0
  5  6  1  0
  6  7  1  0
M  END
>  <name>  (59) 
Car Nac Nd0 Car Car Car O_a

>  <indices>  (59) 
[0, 1, 2]

>  <dummy>  (59) 
2

>  <tasks>  (59) 
probe_placing close_aromatic_ring close_aromatic_ring close_aromatic_ring

>  <current_task>  (59) 
close_aromatic_ring

>  <prot_clashes>  (59) 
1

>  <NBS phar>  (59) 
0.2

>  <NBS_non-phar>  (59) 
0.8808979988098145

>  <NBS>  (59) 
1.0808979988098144

>  <source_stage>  (59) 
scored

>  <source_iter>  (59) 
3

>  <source_parent_mol>  (59) 
0

>  <source_scenario>  (59) 
1 0 0

>  <source_rank_in_scored_call>  (59) 
0

>  <source_current_task>  (59) 
close_aromatic_ring

>  <scenario>  (59) 
1 0 0

>  <rotatable_bond_torsions>  (59) 
0,1,3,4;1,3,4,5

>  <reason_to_skip>  (59) 
some_atom_counter_exceeded

$$$$

     RDKit          3D

  7  6  0  0  0  0  0  0  0  0999 V2000
  -27.8640   -7.4760  -31.1990 C   0  0  0  0  0  0  0  0  0  0  0  0
  -27.5380   -6.7190  -32.2850 N   0  0  0  0  0  0  0  0  0  0  0  0
  -27.6840   -8.8650  -31.2620 N   0  0  0  0  0  0  0  0  0  0  0  0
  -27.8024   -5.3830  -31.8813 C   0  0  0  0  0  0  0  0  0  0  0  0
  -28.2578   -4.8905  -30.7215 C   0  0  0  0  0  0  0  0  0  0  0  0
  -28.6964   -5.6502  -29.5041 C   0  0  0  0  0  0  0  0  0  0  0  0
    0.0000    0.0000    0.0000 O   0  0  0  0  0  0  0  0  0  0  0  0
  1  2  2  3
  1  3  1  0
  2  4  1  0
  4  5  1  0
  5  6  1  0
  6  7  1  0
M  END
>  <name>  (60) 
Car Nac Nd0 Car Car Car O_a

>  <indices>  (60) 
[0, 1, 2]

>  <dummy>  (60) 
2

>  <tasks>  (60) 
probe_placing close_aromatic_ring close_aromatic_ring close_aromatic_ring

>  <current_task>  (60) 
close_aromatic_ring

>  <prot_clashes>  (60) 
1

>  <NBS phar>  (60) 
0.2

>  <NBS_non-phar>  (60) 
0.8808979988098145

>  <NBS>  (60) 
1.0808979988098144

>  <source_stage>  (60) 
scored

>  <source_iter>  (60) 
3

>  <source_parent_mol>  (60) 
0

>  <source_scenario>  (60) 
1 0 0

>  <source_rank_in_scored_call>  (60) 
0

>  <source_current_task>  (60) 
close_aromatic_ring

>  <scenario>  (60) 
1 0 0

>  <rotatable_bond_torsions>  (60) 
0,1,3,4;1,3,4,5

>  <reason_to_skip>  (60) 
some_atom_counter_exceeded

$$$$

     RDKit          3D

  7  6  0  0  0  0  0  0  0  0999 V2000
  -27.8640   -7.4760  -31.1990 C   0  0  0  0  0  0  0  0  0  0  0  0
  -27.5380   -6.7190  -32.2850 N   0  0  0  0  0  0  0  0  0  0  0  0
  -27.6840   -8.8650  -31.2620 N   0  0  0  0  0  0  0  0  0  0  0  0
  -27.8024   -5.3830  -31.8813 C   0  0  0  0  0  0  0  0  0  0  0  0
  -28.2578   -4.8905  -30.7215 C   0  0  0  0  0  0  0  0  0  0  0  0
  -28.6964   -5.6502  -29.5041 C   0  0  0  0  0  0  0  0  0  0  0  0
  -30.0970   -5.7561  -29.1902 C   0  0  0  0  0  0  0  0  0  0  0  0
  1  2  2  3
  1  3  1  0
  2  4  1  0
  4  5  1  0
  5  6  1  0
  6  7  1  0
M  END
>  <name>  (61) 
Car Nac Nd0 Car Car Car Car

>  <indices>  (61) 
[0, 1, 2]

>  <dummy>  (61) 
2

>  <tasks>  (61) 
probe_placing close_aromatic_ring close_aromatic_ring close_aromatic_ring

>  <current_task>  (61) 
close_aromatic_ring

>  <prot_clashes>  (61) 
1

>  <NBS phar>  (61) 
0.2

>  <NBS_non-phar>  (61) 
0.8808979988098145

>  <NBS>  (61) 
1.0808979988098144

>  <source_stage>  (61) 
scored

>  <source_iter>  (61) 
3

>  <source_parent_mol>  (61) 
0

>  <source_scenario>  (61) 
1 0 0

>  <source_rank_in_scored_call>  (61) 
0

>  <source_current_task>  (61) 
close_aromatic_ring

>  <scenario>  (61) 
1 0 0

>  <rotatable_bond_torsions>  (61) 
0,1,3,4;1,3,4,5

>  <reason_to_skip>  (61) 
incorrect arom ring closing

$$$$

     RDKit          3D

  7  6  0  0  0  0  0  0  0  0999 V2000
  -27.8640   -7.4760  -31.1990 C   0  0  0  0  0  0  0  0  0  0  0  0
  -27.5380   -6.7190  -32.2850 N   0  0  0  0  0  0  0  0  0  0  0  0
  -27.6840   -8.8650  -31.2620 N   0  0  0  0  0  0  0  0  0  0  0  0
  -27.8024   -5.3830  -31.8813 C   0  0  0  0  0  0  0  0  0  0  0  0
  -28.2578   -4.8905  -30.7215 C   0  0  0  0  0  0  0  0  0  0  0  0
  -28.6964   -5.6502  -29.5041 C   0  0  0  0  0  0  0  0  0  0  0  0
  -27.8863   -6.3468  -28.6713 N   0  0  0  0  0  0  0  0  0  0  0  0
  1  2  2  3
  1  3  1  0
  2  4  1  0
  4  5  1  0
  5  6  1  0
  6  7  2  0
M  END
>  <name>  (62) 
Car Nac Nd0 Car Car Car Nac

>  <indices>  (62) 
[0, 1, 2]

>  <dummy>  (62) 
2

>  <tasks>  (62) 
probe_placing close_aromatic_ring close_aromatic_ring close_aromatic_ring

>  <current_task>  (62) 
close_aromatic_ring

>  <prot_clashes>  (62) 
1

>  <NBS phar>  (62) 
0.2

>  <NBS_non-phar>  (62) 
0.8808979988098145

>  <NBS>  (62) 
1.0808979988098144

>  <source_stage>  (62) 
scored

>  <source_iter>  (62) 
3

>  <source_parent_mol>  (62) 
0

>  <source_scenario>  (62) 
1 0 0

>  <source_rank_in_scored_call>  (62) 
0

>  <source_current_task>  (62) 
close_aromatic_ring

>  <scenario>  (62) 
1 0 0

>  <rotatable_bond_torsions>  (62) 
0,1,3,4;1,3,4,5

>  <reason_to_skip>  (62) 
incorrect arom ring closing

$$$$

     RDKit          3D

  7  6  0  0  0  0  0  0  0  0999 V2000
  -27.8640   -7.4760  -31.1990 C   0  0  0  0  0  0  0  0  0  0  0  0
  -27.5380   -6.7190  -32.2850 N   0  0  0  0  0  0  0  0  0  0  0  0
  -27.6840   -8.8650  -31.2620 N   0  0  0  0  0  0  0  0  0  0  0  0
  -27.8024   -5.3830  -31.8813 C   0  0  0  0  0  0  0  0  0  0  0  0
  -28.2578   -4.8905  -30.7215 C   0  0  0  0  0  0  0  0  0  0  0  0
  -28.6964   -5.6502  -29.5041 C   0  0  0  0  0  0  0  0  0  0  0  0
    0.0000    0.0000    0.0000 S   0  0  0  0  0  0  0  0  0  0  0  0
  1  2  2  3
  1  3  1  0
  2  4  1  0
  4  5  1  0
  5  6  1  0
  6  7  1  0
M  END
>  <name>  (63) 
Car Nac Nd0 Car Car Car Sul

>  <indices>  (63) 
[0, 1, 2]

>  <dummy>  (63) 
2

>  <tasks>  (63) 
probe_placing close_aromatic_ring close_aromatic_ring close_aromatic_ring

>  <current_task>  (63) 
close_aromatic_ring

>  <prot_clashes>  (63) 
1

>  <NBS phar>  (63) 
0.2

>  <NBS_non-phar>  (63) 
0.8808979988098145

>  <NBS>  (63) 
1.0808979988098144

>  <source_stage>  (63) 
scored

>  <source_iter>  (63) 
3

>  <source_parent_mol>  (63) 
0

>  <source_scenario>  (63) 
1 0 0

>  <source_rank_in_scored_call>  (63) 
0

>  <source_current_task>  (63) 
close_aromatic_ring

>  <scenario>  (63) 
1 0 0

>  <rotatable_bond_torsions>  (63) 
0,1,3,4;1,3,4,5

>  <reason_to_skip>  (63) 
some_atom_counter_exceeded

$$$$

     RDKit          3D

  7  6  0  0  0  0  0  0  0  0999 V2000
  -27.8640   -7.4760  -31.1990 C   0  0  0  0  0  0  0  0  0  0  0  0
  -27.5380   -6.7190  -32.2850 N   0  0  0  0  0  0  0  0  0  0  0  0
  -27.6840   -8.8650  -31.2620 N   0  0  0  0  0  0  0  0  0  0  0  0
  -27.8024   -5.3830  -31.8813 C   0  0  0  0  0  0  0  0  0  0  0  0
  -28.2578   -4.8905  -30.7215 C   0  0  0  0  0  0  0  0  0  0  0  0
  -28.6964   -5.6502  -29.5041 C   0  0  0  0  0  0  0  0  0  0  0  0
  -27.9277   -5.2898  -28.3191 C   0  0  0  0  0  0  0  0  0  0  0  0
  1  2  2  3
  1  3  1  0
  2  4  1  0
  4  5  1  0
  5  6  1  0
  6  7  1  0
M  END
>  <name>  (64) 
Car Nac Nd0 Car Car Car Car

>  <indices>  (64) 
[0, 1, 2]

>  <dummy>  (64) 
2

>  <tasks>  (64) 
probe_placing close_aromatic_ring close_aromatic_ring close_aromatic_ring

>  <current_task>  (64) 
close_aromatic_ring

>  <prot_clashes>  (64) 
1

>  <NBS phar>  (64) 
0.2

>  <NBS_non-phar>  (64) 
0.8808979988098145

>  <NBS>  (64) 
1.0808979988098144

>  <source_stage>  (64) 
scored

>  <source_iter>  (64) 
3

>  <source_parent_mol>  (64) 
0

>  <source_scenario>  (64) 
1 0 0

>  <source_rank_in_scored_call>  (64) 
0

>  <source_current_task>  (64) 
close_aromatic_ring

>  <scenario>  (64) 
1 0 0

>  <rotatable_bond_torsions>  (64) 
0,1,3,4;1,3,4,5

>  <reason_to_skip>  (64) 
incorrect arom ring closing

$$$$

     RDKit          3D

  7  6  0  0  0  0  0  0  0  0999 V2000
  -27.8640   -7.4760  -31.1990 C   0  0  0  0  0  0  0  0  0  0  0  0
  -27.5380   -6.7190  -32.2850 N   0  0  0  0  0  0  0  0  0  0  0  0
  -27.6840   -8.8650  -31.2620 N   0  0  0  0  0  0  0  0  0  0  0  0
  -27.8024   -5.3830  -31.8813 C   0  0  0  0  0  0  0  0  0  0  0  0
  -28.2578   -4.8905  -30.7215 C   0  0  0  0  0  0  0  0  0  0  0  0
  -28.6964   -5.6502  -29.5041 C   0  0  0  0  0  0  0  0  0  0  0  0
    0.0000    0.0000    0.0000 S   0  0  0  0  0  0  0  0  0  0  0  0
  1  2  2  3
  1  3  1  0
  2  4  1  0
  4  5  1  0
  5  6  1  0
  6  7  1  0
M  END
>  <name>  (65) 
Car Nac Nd0 Car Car Car Sul

>  <indices>  (65) 
[0, 1, 2]

>  <dummy>  (65) 
2

>  <tasks>  (65) 
probe_placing close_aromatic_ring close_aromatic_ring close_aromatic_ring

>  <current_task>  (65) 
close_aromatic_ring

>  <prot_clashes>  (65) 
1

>  <NBS phar>  (65) 
0.2

>  <NBS_non-phar>  (65) 
0.8808979988098145

>  <NBS>  (65) 
1.0808979988098144

>  <source_stage>  (65) 
scored

>  <source_iter>  (65) 
3

>  <source_parent_mol>  (65) 
0

>  <source_scenario>  (65) 
1 0 0

>  <source_rank_in_scored_call>  (65) 
0

>  <source_current_task>  (65) 
close_aromatic_ring

>  <scenario>  (65) 
1 0 0

>  <rotatable_bond_torsions>  (65) 
0,1,3,4;1,3,4,5

>  <reason_to_skip>  (65) 
some_atom_counter_exceeded

$$$$

     RDKit          3D

  7  6  0  0  0  0  0  0  0  0999 V2000
  -27.8640   -7.4760  -31.1990 C   0  0  0  0  0  0  0  0  0  0  0  0
  -27.5380   -6.7190  -32.2850 N   0  0  0  0  0  0  0  0  0  0  0  0
  -27.6840   -8.8650  -31.2620 N   0  0  0  0  0  0  0  0  0  0  0  0
  -27.8024   -5.3830  -31.8813 C   0  0  0  0  0  0  0  0  0  0  0  0
  -28.2578   -4.8905  -30.7215 C   0  0  0  0  0  0  0  0  0  0  0  0
  -28.6964   -5.6502  -29.5041 C   0  0  0  0  0  0  0  0  0  0  0  0
  -29.8587   -6.3925  -29.4557 N   0  0  0  0  0  0  0  0  0  0  0  0
  1  2  2  3
  1  3  1  0
  2  4  1  0
  4  5  1  0
  5  6  1  0
  6  7  2  0
M  END
>  <name>  (66) 
Car Nac Nd0 Car Car Car Nac

>  <indices>  (66) 
[0, 1, 2]

>  <dummy>  (66) 
2

>  <tasks>  (66) 
probe_placing close_aromatic_ring close_aromatic_ring close_aromatic_ring

>  <current_task>  (66) 
close_aromatic_ring

>  <prot_clashes>  (66) 
1

>  <NBS phar>  (66) 
0.2

>  <NBS_non-phar>  (66) 
0.8808979988098145

>  <NBS>  (66) 
1.0808979988098144

>  <source_stage>  (66) 
scored

>  <source_iter>  (66) 
3

>  <source_parent_mol>  (66) 
0

>  <source_scenario>  (66) 
1 0 0

>  <source_rank_in_scored_call>  (66) 
0

>  <source_current_task>  (66) 
close_aromatic_ring

>  <scenario>  (66) 
1 0 0

>  <rotatable_bond_torsions>  (66) 
0,1,3,4;1,3,4,5

>  <reason_to_skip>  (66) 
incorrect arom ring closing

$$$$

     RDKit          3D

  7  6  0  0  0  0  0  0  0  0999 V2000
  -27.8640   -7.4760  -31.1990 C   0  0  0  0  0  0  0  0  0  0  0  0
  -27.5380   -6.7190  -32.2850 N   0  0  0  0  0  0  0  0  0  0  0  0
  -27.6840   -8.8650  -31.2620 N   0  0  0  0  0  0  0  0  0  0  0  0
  -27.8024   -5.3830  -31.8813 C   0  0  0  0  0  0  0  0  0  0  0  0
  -28.2578   -4.8905  -30.7215 C   0  0  0  0  0  0  0  0  0  0  0  0
  -28.6964   -5.6502  -29.5041 C   0  0  0  0  0  0  0  0  0  0  0  0
    0.0000    0.0000    0.0000 O   0  0  0  0  0  0  0  0  0  0  0  0
  1  2  2  3
  1  3  1  0
  2  4  1  0
  4  5  1  0
  5  6  1  0
  6  7  1  0
M  END
>  <name>  (67) 
Car Nac Nd0 Car Car Car O_a

>  <indices>  (67) 
[0, 1, 2]

>  <dummy>  (67) 
2

>  <tasks>  (67) 
probe_placing close_aromatic_ring close_aromatic_ring close_aromatic_ring

>  <current_task>  (67) 
close_aromatic_ring

>  <prot_clashes>  (67) 
1

>  <NBS phar>  (67) 
0.2

>  <NBS_non-phar>  (67) 
0.8808979988098145

>  <NBS>  (67) 
1.0808979988098144

>  <source_stage>  (67) 
scored

>  <source_iter>  (67) 
3

>  <source_parent_mol>  (67) 
0

>  <source_scenario>  (67) 
1 0 0

>  <source_rank_in_scored_call>  (67) 
0

>  <source_current_task>  (67) 
close_aromatic_ring

>  <scenario>  (67) 
1 0 0

>  <rotatable_bond_torsions>  (67) 
0,1,3,4;1,3,4,5

>  <reason_to_skip>  (67) 
some_atom_counter_exceeded

$$$$

     RDKit          3D

  7  6  0  0  0  0  0  0  0  0999 V2000
  -27.8640   -7.4760  -31.1990 C   0  0  0  0  0  0  0  0  0  0  0  0
  -27.5380   -6.7190  -32.2850 N   0  0  0  0  0  0  0  0  0  0  0  0
  -27.6840   -8.8650  -31.2620 N   0  0  0  0  0  0  0  0  0  0  0  0
  -27.8024   -5.3830  -31.8813 C   0  0  0  0  0  0  0  0  0  0  0  0
  -28.2578   -4.8905  -30.7215 C   0  0  0  0  0  0  0  0  0  0  0  0
  -28.6964   -5.6502  -29.5041 C   0  0  0  0  0  0  0  0  0  0  0  0
  -29.8920   -5.6797  -29.0923 N   0  0  0  0  0  0  0  0  0  0  0  0
  1  2  2  3
  1  3  1  0
  2  4  1  0
  4  5  1  0
  5  6  1  0
  6  7  1  0
M  END
>  <name>  (68) 
Car Nac Nd0 Car Car Car Nd0

>  <indices>  (68) 
[0, 1, 2]

>  <dummy>  (68) 
2

>  <tasks>  (68) 
probe_placing close_aromatic_ring close_aromatic_ring close_aromatic_ring

>  <current_task>  (68) 
close_aromatic_ring

>  <prot_clashes>  (68) 
1

>  <NBS phar>  (68) 
0.2

>  <NBS_non-phar>  (68) 
0.8808979988098145

>  <NBS>  (68) 
1.0808979988098144

>  <source_stage>  (68) 
scored

>  <source_iter>  (68) 
3

>  <source_parent_mol>  (68) 
0

>  <source_scenario>  (68) 
1 0 0

>  <source_rank_in_scored_call>  (68) 
0

>  <source_current_task>  (68) 
close_aromatic_ring

>  <scenario>  (68) 
1 0 0

>  <rotatable_bond_torsions>  (68) 
0,1,3,4;1,3,4,5

>  <reason_to_skip>  (68) 
incorrect arom ring closing

$$$$

     RDKit          3D

  7  6  0  0  0  0  0  0  0  0999 V2000
  -27.8640   -7.4760  -31.1990 C   0  0  0  0  0  0  0  0  0  0  0  0
  -27.5380   -6.7190  -32.2850 N   0  0  0  0  0  0  0  0  0  0  0  0
  -27.6840   -8.8650  -31.2620 N   0  0  0  0  0  0  0  0  0  0  0  0
  -27.8024   -5.3830  -31.8813 C   0  0  0  0  0  0  0  0  0  0  0  0
  -28.2578   -4.8905  -30.7215 C   0  0  0  0  0  0  0  0  0  0  0  0
  -28.6964   -5.6502  -29.5041 C   0  0  0  0  0  0  0  0  0  0  0  0
    0.0000    0.0000    0.0000 S   0  0  0  0  0  0  0  0  0  0  0  0
  1  2  2  3
  1  3  1  0
  2  4  1  0
  4  5  1  0
  5  6  1  0
  6  7  1  0
M  END
>  <name>  (69) 
Car Nac Nd0 Car Car Car Sul

>  <indices>  (69) 
[0, 1, 2]

>  <dummy>  (69) 
2

>  <tasks>  (69) 
probe_placing close_aromatic_ring close_aromatic_ring close_aromatic_ring

>  <current_task>  (69) 
close_aromatic_ring

>  <prot_clashes>  (69) 
1

>  <NBS phar>  (69) 
0.2

>  <NBS_non-phar>  (69) 
0.8808979988098145

>  <NBS>  (69) 
1.0808979988098144

>  <source_stage>  (69) 
scored

>  <source_iter>  (69) 
3

>  <source_parent_mol>  (69) 
0

>  <source_scenario>  (69) 
1 0 0

>  <source_rank_in_scored_call>  (69) 
0

>  <source_current_task>  (69) 
close_aromatic_ring

>  <scenario>  (69) 
1 0 0

>  <rotatable_bond_torsions>  (69) 
0,1,3,4;1,3,4,5

>  <reason_to_skip>  (69) 
some_atom_counter_exceeded

$$$$

     RDKit          3D

  7  6  0  0  0  0  0  0  0  0999 V2000
  -27.8640   -7.4760  -31.1990 C   0  0  0  0  0  0  0  0  0  0  0  0
  -27.5380   -6.7190  -32.2850 N   0  0  0  0  0  0  0  0  0  0  0  0
  -27.6840   -8.8650  -31.2620 N   0  0  0  0  0  0  0  0  0  0  0  0
  -27.8024   -5.3830  -31.8813 C   0  0  0  0  0  0  0  0  0  0  0  0
  -28.2578   -4.8905  -30.7215 C   0  0  0  0  0  0  0  0  0  0  0  0
  -28.6964   -5.6502  -29.5041 C   0  0  0  0  0  0  0  0  0  0  0  0
  -30.1864   -5.8241  -29.5855 N   0  0  0  0  0  0  0  0  0  0  0  0
  1  2  2  3
  1  3  1  0
  2  4  1  0
  4  5  1  0
  5  6  1  0
  6  7  1  0
M  END
>  <name>  (70) 
Car Nac Nd0 Car Car Car Nd0

>  <indices>  (70) 
[0, 1, 2]

>  <dummy>  (70) 
2

>  <tasks>  (70) 
probe_placing close_aromatic_ring close_aromatic_ring close_aromatic_ring

>  <current_task>  (70) 
close_aromatic_ring

>  <prot_clashes>  (70) 
1

>  <NBS phar>  (70) 
0.2

>  <NBS_non-phar>  (70) 
0.8808979988098145

>  <NBS>  (70) 
1.0808979988098144

>  <source_stage>  (70) 
scored

>  <source_iter>  (70) 
3

>  <source_parent_mol>  (70) 
0

>  <source_scenario>  (70) 
1 0 0

>  <source_rank_in_scored_call>  (70) 
0

>  <source_current_task>  (70) 
close_aromatic_ring

>  <scenario>  (70) 
1 0 0

>  <rotatable_bond_torsions>  (70) 
0,1,3,4;1,3,4,5

>  <reason_to_skip>  (70) 
incorrect arom ring closing

$$$$

     RDKit          3D

  7  6  0  0  0  0  0  0  0  0999 V2000
  -27.8640   -7.4760  -31.1990 C   0  0  0  0  0  0  0  0  0  0  0  0
  -27.5380   -6.7190  -32.2850 N   0  0  0  0  0  0  0  0  0  0  0  0
  -27.6840   -8.8650  -31.2620 N   0  0  0  0  0  0  0  0  0  0  0  0
  -27.8024   -5.3830  -31.8813 C   0  0  0  0  0  0  0  0  0  0  0  0
  -28.2578   -4.8905  -30.7215 C   0  0  0  0  0  0  0  0  0  0  0  0
  -28.6964   -5.6502  -29.5041 C   0  0  0  0  0  0  0  0  0  0  0  0
    0.0000    0.0000    0.0000 O   0  0  0  0  0  0  0  0  0  0  0  0
  1  2  2  3
  1  3  1  0
  2  4  1  0
  4  5  1  0
  5  6  1  0
  6  7  1  0
M  END
>  <name>  (71) 
Car Nac Nd0 Car Car Car O_a

>  <indices>  (71) 
[0, 1, 2]

>  <dummy>  (71) 
2

>  <tasks>  (71) 
probe_placing close_aromatic_ring close_aromatic_ring close_aromatic_ring

>  <current_task>  (71) 
close_aromatic_ring

>  <prot_clashes>  (71) 
1

>  <NBS phar>  (71) 
0.2

>  <NBS_non-phar>  (71) 
0.8808979988098145

>  <NBS>  (71) 
1.0808979988098144

>  <source_stage>  (71) 
scored

>  <source_iter>  (71) 
3

>  <source_parent_mol>  (71) 
0

>  <source_scenario>  (71) 
1 0 0

>  <source_rank_in_scored_call>  (71) 
0

>  <source_current_task>  (71) 
close_aromatic_ring

>  <scenario>  (71) 
1 0 0

>  <rotatable_bond_torsions>  (71) 
0,1,3,4;1,3,4,5

>  <reason_to_skip>  (71) 
some_atom_counter_exceeded

$$$$

     RDKit          3D

  7  6  0  0  0  0  0  0  0  0999 V2000
  -27.8640   -7.4760  -31.1990 C   0  0  0  0  0  0  0  0  0  0  0  0
  -27.5380   -6.7190  -32.2850 N   0  0  0  0  0  0  0  0  0  0  0  0
  -27.6840   -8.8650  -31.2620 N   0  0  0  0  0  0  0  0  0  0  0  0
  -27.8024   -5.3830  -31.8813 C   0  0  0  0  0  0  0  0  0  0  0  0
  -28.2578   -4.8905  -30.7215 C   0  0  0  0  0  0  0  0  0  0  0  0
  -28.6964   -5.6502  -29.5041 C   0  0  0  0  0  0  0  0  0  0  0  0
    0.0000    0.0000    0.0000 O   0  0  0  0  0  0  0  0  0  0  0  0
  1  2  2  3
  1  3  1  0
  2  4  1  0
  4  5  1  0
  5  6  1  0
  6  7  1  0
M  END
>  <name>  (72) 
Car Nac Nd0 Car Car Car O_a

>  <indices>  (72) 
[0, 1, 2]

>  <dummy>  (72) 
2

>  <tasks>  (72) 
probe_placing close_aromatic_ring close_aromatic_ring close_aromatic_ring

>  <current_task>  (72) 
close_aromatic_ring

>  <prot_clashes>  (72) 
1

>  <NBS phar>  (72) 
0.2

>  <NBS_non-phar>  (72) 
0.8808979988098145

>  <NBS>  (72) 
1.0808979988098144

>  <source_stage>  (72) 
scored

>  <source_iter>  (72) 
3

>  <source_parent_mol>  (72) 
0

>  <source_scenario>  (72) 
1 0 0

>  <source_rank_in_scored_call>  (72) 
0

>  <source_current_task>  (72) 
close_aromatic_ring

>  <scenario>  (72) 
1 0 0

>  <rotatable_bond_torsions>  (72) 
0,1,3,4;1,3,4,5

>  <reason_to_skip>  (72) 
some_atom_counter_exceeded

$$$$

     RDKit          3D

  7  7  0  0  0  0  0  0  0  0999 V2000
  -27.9251   -7.4948  -31.0671 C   0  0  0  0  0  0  0  0  0  0  0  0
  -27.6189   -6.6849  -32.0405 N   0  0  0  0  0  0  0  0  0  0  0  0
  -27.6840   -8.8650  -31.2620 N   0  0  0  0  0  0  0  0  0  0  0  0
  -27.8128   -5.3238  -31.9978 C   0  0  0  0  0  0  0  0  0  0  0  0
  -28.2236   -4.8110  -30.6725 C   0  0  0  0  0  0  0  0  0  0  0  0
  -28.6573   -5.7980  -29.6717 C   0  0  0  0  0  0  0  0  0  0  0  0
  -28.5121   -7.0507  -29.8493 N   0  0  0  0  0  0  0  0  0  0  0  0
  1  2  2  0
  1  3  1  0
  2  4  1  0
  4  5  1  0
  5  6  1  0
  6  7  2  0
  1  7  1  0
M  END
>  <name>  (73) 
Car Nac Nd0 Car Car Car Nac

>  <indices>  (73) 
[0, 1, 2]

>  <dummy>  (73) 
2

>  <tasks>  (73) 
probe_placing close_aromatic_ring close_aromatic_ring close_aromatic_ring

>  <current_task>  (73) 
fix_Car

>  <prot_clashes>  (73) 
1

>  <NBS phar>  (73) 
0.2

>  <NBS_non-phar>  (73) 
0.8808979988098145

>  <NBS>  (73) 
1.0808979988098144

>  <source_stage>  (73) 
scored

>  <source_iter>  (73) 
3

>  <source_parent_mol>  (73) 
0

>  <source_scenario>  (73) 
1 0 0

>  <source_rank_in_scored_call>  (73) 
0

>  <source_current_task>  (73) 
close_aromatic_ring

>  <scenario>  (73) 
1 0 0

>  <rotatable_bond_torsions>  (73) 
0,1,3,4;1,3,4,5

>  <reason_to_skip>  (73) 
subgraph mismatch

$$$$

     RDKit          3D

  7  7  0  0  0  0  0  0  0  0999 V2000
  -27.6330   -7.5349  -31.2116 C   0  0  0  0  0  0  0  0  0  0  0  0
  -27.4471   -6.6505  -32.0971 N   0  0  0  0  0  0  0  0  0  0  0  0
  -27.6840   -8.8650  -31.2620 N   0  0  0  0  0  0  0  0  0  0  0  0
  -28.1030   -5.4246  -32.0991 C   0  0  0  0  0  0  0  0  0  0  0  0
  -28.1297   -4.9927  -30.6464 C   0  0  0  0  0  0  0  0  0  0  0  0
  -28.3707   -5.8382  -29.5874 C   0  0  0  0  0  0  0  0  0  0  0  0
  -28.6242   -7.2860  -30.0834 C   0  0  0  0  0  0  0  0  0  0  0  0
  1  2  2  0
  1  3  1  0
  2  4  1  0
  4  5  1  0
  5  6  2  0
  6  7  1  0
  1  7  1  0
M  END
>  <name>  (1) 
Car Nac Nd0 Car Car Car Car

>  <indices>  (1) 
[0, 1, 2]

>  <dummy>  (1) 
2

>  <tasks>  (1) 
probe_placing close_aromatic_ring close_aromatic_ring close_aromatic_ring

>  <current_task>  (1) 
close_aromatic_ring

>  <prot_clashes>  (1) 
0

>  <NBS phar>  (1) 
0.22000000000000003

>  <NBS_non-phar>  (1) 
0.8525343736012777

>  <NBS>  (1) 
1.0725343736012778

>  <source_stage>  (1) 
scored

>  <source_iter>  (1) 
3

>  <source_parent_mol>  (1) 
0

>  <source_scenario>  (1) 
1 0 0

>  <source_rank_in_scored_call>  (1) 
1

>  <source_current_task>  (1) 
close_aromatic_ring

>  <scenario>  (1) 
1 0 0

>  <rotatable_bond_torsions>  (1) 
0,1,3,4;1,3,4,5

>  <reason_to_skip>  (1) 
Car-Nac-DB dihedral

$$$$

     RDKit          3D

  7  6  0  0  0  0  0  0  0  0999 V2000
  -27.8640   -7.4760  -31.1990 C   0  0  0  0  0  0  0  0  0  0  0  0
  -27.5380   -6.7190  -32.2850 N   0  0  0  0  0  0  0  0  0  0  0  0
  -27.6840   -8.8650  -31.2620 N   0  0  0  0  0  0  0  0  0  0  0  0
  -27.8024   -5.3830  -31.8813 C   0  0  0  0  0  0  0  0  0  0  0  0
  -28.2578   -4.8905  -30.7215 C   0  0  0  0  0  0  0  0  0  0  0  0
  -28.5306   -5.9011  -29.7337 C   0  0  0  0  0  0  0  0  0  0  0  0
  -28.9787   -5.4573  -28.3443 N   0  0  0  0  0  0  0  0  0  0  0  0
  1  2  2  3
  1  3  1  0
  2  4  1  0
  4  5  1  0
  5  6  2  3
  6  7  1  0
M  END
>  <name>  (2) 
Car Nac Nd0 Car Car Car Nd0

>  <indices>  (2) 
[0, 1, 2]

>  <dummy>  (2) 
2

>  <tasks>  (2) 
probe_placing close_aromatic_ring close_aromatic_ring close_aromatic_ring

>  <current_task>  (2) 
close_aromatic_ring

>  <prot_clashes>  (2) 
0

>  <NBS phar>  (2) 
0.22000000000000003

>  <NBS_non-phar>  (2) 
0.8525343736012777

>  <NBS>  (2) 
1.0725343736012778

>  <source_stage>  (2) 
scored

>  <source_iter>  (2) 
3

>  <source_parent_mol>  (2) 
0

>  <source_scenario>  (2) 
1 0 0

>  <source_rank_in_scored_call>  (2) 
1

>  <source_current_task>  (2) 
close_aromatic_ring

>  <scenario>  (2) 
1 0 0

>  <rotatable_bond_torsions>  (2) 
0,1,3,4;1,3,4,5

>  <reason_to_skip>  (2) 
incorrect arom ring closing

$$$$

     RDKit          3D

  7  6  0  0  0  0  0  0  0  0999 V2000
  -27.8640   -7.4760  -31.1990 C   0  0  0  0  0  0  0  0  0  0  0  0
  -27.5380   -6.7190  -32.2850 N   0  0  0  0  0  0  0  0  0  0  0  0
  -27.6840   -8.8650  -31.2620 N   0  0  0  0  0  0  0  0  0  0  0  0
  -27.8024   -5.3830  -31.8813 C   0  0  0  0  0  0  0  0  0  0  0  0
  -28.2578   -4.8905  -30.7215 C   0  0  0  0  0  0  0  0  0  0  0  0
  -28.5306   -5.9011  -29.7337 C   0  0  0  0  0  0  0  0  0  0  0  0
  -29.1331   -5.4943  -28.3947 N   0  0  0  0  0  0  0  0  0  0  0  0
  1  2  2  3
  1  3  1  0
  2  4  1  0
  4  5  1  0
  5  6  2  3
  6  7  1  0
M  END
>  <name>  (3) 
Car Nac Nd0 Car Car Car Nd0

>  <indices>  (3) 
[0, 1, 2]

>  <dummy>  (3) 
2

>  <tasks>  (3) 
probe_placing close_aromatic_ring close_aromatic_ring close_aromatic_ring

>  <current_task>  (3) 
close_aromatic_ring

>  <prot_clashes>  (3) 
0

>  <NBS phar>  (3) 
0.22000000000000003

>  <NBS_non-phar>  (3) 
0.8525343736012777

>  <NBS>  (3) 
1.0725343736012778

>  <source_stage>  (3) 
scored

>  <source_iter>  (3) 
3

>  <source_parent_mol>  (3) 
0

>  <source_scenario>  (3) 
1 0 0

>  <source_rank_in_scored_call>  (3) 
1

>  <source_current_task>  (3) 
close_aromatic_ring

>  <scenario>  (3) 
1 0 0

>  <rotatable_bond_torsions>  (3) 
0,1,3,4;1,3,4,5

>  <reason_to_skip>  (3) 
incorrect arom ring closing

$$$$

     RDKit          3D

  7  6  0  0  0  0  0  0  0  0999 V2000
  -27.8640   -7.4760  -31.1990 C   0  0  0  0  0  0  0  0  0  0  0  0
  -27.5380   -6.7190  -32.2850 N   0  0  0  0  0  0  0  0  0  0  0  0
  -27.6840   -8.8650  -31.2620 N   0  0  0  0  0  0  0  0  0  0  0  0
  -27.8024   -5.3830  -31.8813 C   0  0  0  0  0  0  0  0  0  0  0  0
  -28.2578   -4.8905  -30.7215 C   0  0  0  0  0  0  0  0  0  0  0  0
  -28.5306   -5.9011  -29.7337 C   0  0  0  0  0  0  0  0  0  0  0  0
  -29.0005   -5.4367  -28.5137 N   0  0  0  0  0  0  0  0  0  0  0  0
  1  2  2  3
  1  3  1  0
  2  4  1  0
  4  5  1  0
  5  6  2  3
  6  7  1  0
M  END
>  <name>  (4) 
Car Nac Nd0 Car Car Car Nac

>  <indices>  (4) 
[0, 1, 2]

>  <dummy>  (4) 
2

>  <tasks>  (4) 
probe_placing close_aromatic_ring close_aromatic_ring close_aromatic_ring

>  <current_task>  (4) 
close_aromatic_ring

>  <prot_clashes>  (4) 
0

>  <NBS phar>  (4) 
0.22000000000000003

>  <NBS_non-phar>  (4) 
0.8525343736012777

>  <NBS>  (4) 
1.0725343736012778

>  <source_stage>  (4) 
scored

>  <source_iter>  (4) 
3

>  <source_parent_mol>  (4) 
0

>  <source_scenario>  (4) 
1 0 0

>  <source_rank_in_scored_call>  (4) 
1

>  <source_current_task>  (4) 
close_aromatic_ring

>  <scenario>  (4) 
1 0 0

>  <rotatable_bond_torsions>  (4) 
0,1,3,4;1,3,4,5

>  <reason_to_skip>  (4) 
incorrect arom ring closing

$$$$

     RDKit          3D

  7  6  0  0  0  0  0  0  0  0999 V2000
  -27.8640   -7.4760  -31.1990 C   0  0  0  0  0  0  0  0  0  0  0  0
  -27.5380   -6.7190  -32.2850 N   0  0  0  0  0  0  0  0  0  0  0  0
  -27.6840   -8.8650  -31.2620 N   0  0  0  0  0  0  0  0  0  0  0  0
  -27.8024   -5.3830  -31.8813 C   0  0  0  0  0  0  0  0  0  0  0  0
  -28.2578   -4.8905  -30.7215 C   0  0  0  0  0  0  0  0  0  0  0  0
  -28.5306   -5.9011  -29.7337 C   0  0  0  0  0  0  0  0  0  0  0  0
  -29.0080   -5.5175  -28.4990 N   0  0  0  0  0  0  0  0  0  0  0  0
  1  2  2  3
  1  3  1  0
  2  4  1  0
  4  5  1  0
  5  6  2  3
  6  7  1  0
M  END
>  <name>  (5) 
Car Nac Nd0 Car Car Car Nac

>  <indices>  (5) 
[0, 1, 2]

>  <dummy>  (5) 
2

>  <tasks>  (5) 
probe_placing close_aromatic_ring close_aromatic_ring close_aromatic_ring

>  <current_task>  (5) 
close_aromatic_ring

>  <prot_clashes>  (5) 
0

>  <NBS phar>  (5) 
0.22000000000000003

>  <NBS_non-phar>  (5) 
0.8525343736012777

>  <NBS>  (5) 
1.0725343736012778

>  <source_stage>  (5) 
scored

>  <source_iter>  (5) 
3

>  <source_parent_mol>  (5) 
0

>  <source_scenario>  (5) 
1 0 0

>  <source_rank_in_scored_call>  (5) 
1

>  <source_current_task>  (5) 
close_aromatic_ring

>  <scenario>  (5) 
1 0 0

>  <rotatable_bond_torsions>  (5) 
0,1,3,4;1,3,4,5

>  <reason_to_skip>  (5) 
incorrect arom ring closing

$$$$

     RDKit          3D

  7  7  0  0  0  0  0  0  0  0999 V2000
  -27.8731   -7.4978  -31.2797 C   0  0  0  0  0  0  0  0  0  0  0  0
  -27.5947   -6.7280  -32.1907 N   0  0  0  0  0  0  0  0  0  0  0  0
  -27.6840   -8.8650  -31.2620 N   0  0  0  0  0  0  0  0  0  0  0  0
  -27.6983   -5.3505  -31.9761 C   0  0  0  0  0  0  0  0  0  0  0  0
  -28.3149   -4.9694  -30.6826 C   0  0  0  0  0  0  0  0  0  0  0  0
  -28.5683   -5.8364  -29.6763 C   0  0  0  0  0  0  0  0  0  0  0  0
  -28.2889   -7.2316  -29.9677 N   0  0  0  0  0  0  0  0  0  0  0  0
  1  2  2  0
  1  3  1  0
  2  4  1  0
  4  5  1  0
  5  6  2  0
  6  7  1  0
  1  7  1  0
M  END
>  <name>  (6) 
Car Nac Nd0 Car Car Car Nac

>  <indices>  (6) 
[0, 1, 2]

>  <dummy>  (6) 
2

>  <tasks>  (6) 
probe_placing close_aromatic_ring close_aromatic_ring close_aromatic_ring

>  <current_task>  (6) 
close_aromatic_ring

>  <prot_clashes>  (6) 
0

>  <NBS phar>  (6) 
0.22000000000000003

>  <NBS_non-phar>  (6) 
0.8525343736012777

>  <NBS>  (6) 
1.0725343736012778

>  <source_stage>  (6) 
scored

>  <source_iter>  (6) 
3

>  <source_parent_mol>  (6) 
0

>  <source_scenario>  (6) 
1 0 0

>  <source_rank_in_scored_call>  (6) 
1

>  <source_current_task>  (6) 
close_aromatic_ring

>  <scenario>  (6) 
1 0 0

>  <rotatable_bond_torsions>  (6) 
0,1,3,4;1,3,4,5

>  <reason_to_skip>  (6) 
parallel arom DB

$$$$

     RDKit          3D

  7  6  0  0  0  0  0  0  0  0999 V2000
  -27.8640   -7.4760  -31.1990 C   0  0  0  0  0  0  0  0  0  0  0  0
  -27.5380   -6.7190  -32.2850 N   0  0  0  0  0  0  0  0  0  0  0  0
  -27.6840   -8.8650  -31.2620 N   0  0  0  0  0  0  0  0  0  0  0  0
  -27.8024   -5.3830  -31.8813 C   0  0  0  0  0  0  0  0  0  0  0  0
  -28.2578   -4.8905  -30.7215 C   0  0  0  0  0  0  0  0  0  0  0  0
  -28.5306   -5.9011  -29.7337 C   0  0  0  0  0  0  0  0  0  0  0  0
    0.0000    0.0000    0.0000 O   0  0  0  0  0  0  0  0  0  0  0  0
  1  2  2  3
  1  3  1  0
  2  4  1  0
  4  5  1  0
  5  6  2  3
  6  7  1  0
M  END
>  <name>  (7) 
Car Nac Nd0 Car Car Car O_a

>  <indices>  (7) 
[0, 1, 2]

>  <dummy>  (7) 
2

>  <tasks>  (7) 
probe_placing close_aromatic_ring close_aromatic_ring close_aromatic_ring

>  <current_task>  (7) 
close_aromatic_ring

>  <prot_clashes>  (7) 
0

>  <NBS phar>  (7) 
0.22000000000000003

>  <NBS_non-phar>  (7) 
0.8525343736012777

>  <NBS>  (7) 
1.0725343736012778

>  <source_stage>  (7) 
scored

>  <source_iter>  (7) 
3

>  <source_parent_mol>  (7) 
0

>  <source_scenario>  (7) 
1 0 0

>  <source_rank_in_scored_call>  (7) 
1

>  <source_current_task>  (7) 
close_aromatic_ring

>  <scenario>  (7) 
1 0 0

>  <rotatable_bond_torsions>  (7) 
0,1,3,4;1,3,4,5

>  <reason_to_skip>  (7) 
some_atom_counter_exceeded

$$$$

     RDKit          3D

  7  6  0  0  0  0  0  0  0  0999 V2000
  -27.8640   -7.4760  -31.1990 C   0  0  0  0  0  0  0  0  0  0  0  0
  -27.5380   -6.7190  -32.2850 N   0  0  0  0  0  0  0  0  0  0  0  0
  -27.6840   -8.8650  -31.2620 N   0  0  0  0  0  0  0  0  0  0  0  0
  -27.8024   -5.3830  -31.8813 C   0  0  0  0  0  0  0  0  0  0  0  0
  -28.2578   -4.8905  -30.7215 C   0  0  0  0  0  0  0  0  0  0  0  0
  -28.5306   -5.9011  -29.7337 C   0  0  0  0  0  0  0  0  0  0  0  0
    0.0000    0.0000    0.0000 O   0  0  0  0  0  0  0  0  0  0  0  0
  1  2  2  3
  1  3  1  0
  2  4  1  0
  4  5  1  0
  5  6  2  3
  6  7  1  0
M  END
>  <name>  (8) 
Car Nac Nd0 Car Car Car O_a

>  <indices>  (8) 
[0, 1, 2]

>  <dummy>  (8) 
2

>  <tasks>  (8) 
probe_placing close_aromatic_ring close_aromatic_ring close_aromatic_ring

>  <current_task>  (8) 
close_aromatic_ring

>  <prot_clashes>  (8) 
0

>  <NBS phar>  (8) 
0.22000000000000003

>  <NBS_non-phar>  (8) 
0.8525343736012777

>  <NBS>  (8) 
1.0725343736012778

>  <source_stage>  (8) 
scored

>  <source_iter>  (8) 
3

>  <source_parent_mol>  (8) 
0

>  <source_scenario>  (8) 
1 0 0

>  <source_rank_in_scored_call>  (8) 
1

>  <source_current_task>  (8) 
close_aromatic_ring

>  <scenario>  (8) 
1 0 0

>  <rotatable_bond_torsions>  (8) 
0,1,3,4;1,3,4,5

>  <reason_to_skip>  (8) 
some_atom_counter_exceeded

$$$$

     RDKit          3D

  7  6  0  0  0  0  0  0  0  0999 V2000
  -27.8640   -7.4760  -31.1990 C   0  0  0  0  0  0  0  0  0  0  0  0
  -27.5380   -6.7190  -32.2850 N   0  0  0  0  0  0  0  0  0  0  0  0
  -27.6840   -8.8650  -31.2620 N   0  0  0  0  0  0  0  0  0  0  0  0
  -27.8024   -5.3830  -31.8813 C   0  0  0  0  0  0  0  0  0  0  0  0
  -28.2578   -4.8905  -30.7215 C   0  0  0  0  0  0  0  0  0  0  0  0
  -28.5306   -5.9011  -29.7337 C   0  0  0  0  0  0  0  0  0  0  0  0
  -27.9282   -7.1482  -29.3800 C   0  0  0  0  0  0  0  0  0  0  0  0
  1  2  2  3
  1  3  1  0
  2  4  1  0
  4  5  1  0
  5  6  2  3
  6  7  1  0
M  END
>  <name>  (9) 
Car Nac Nd0 Car Car Car Car

>  <indices>  (9) 
[0, 1, 2]

>  <dummy>  (9) 
2

>  <tasks>  (9) 
probe_placing close_aromatic_ring close_aromatic_ring close_aromatic_ring

>  <current_task>  (9) 
close_aromatic_ring

>  <prot_clashes>  (9) 
0

>  <NBS phar>  (9) 
0.22000000000000003

>  <NBS_non-phar>  (9) 
0.8525343736012777

>  <NBS>  (9) 
1.0725343736012778

>  <source_stage>  (9) 
scored

>  <source_iter>  (9) 
3

>  <source_parent_mol>  (9) 
0

>  <source_scenario>  (9) 
1 0 0

>  <source_rank_in_scored_call>  (9) 
1

>  <source_current_task>  (9) 
close_aromatic_ring

>  <scenario>  (9) 
1 0 0

>  <rotatable_bond_torsions>  (9) 
0,1,3,4;1,3,4,5

>  <reason_to_skip>  (9) 
incorrect arom ring closing

$$$$

     RDKit          3D

  7  6  0  0  0  0  0  0  0  0999 V2000
  -27.8640   -7.4760  -31.1990 C   0  0  0  0  0  0  0  0  0  0  0  0
  -27.5380   -6.7190  -32.2850 N   0  0  0  0  0  0  0  0  0  0  0  0
  -27.6840   -8.8650  -31.2620 N   0  0  0  0  0  0  0  0  0  0  0  0
  -27.8024   -5.3830  -31.8813 C   0  0  0  0  0  0  0  0  0  0  0  0
  -28.2578   -4.8905  -30.7215 C   0  0  0  0  0  0  0  0  0  0  0  0
  -28.5306   -5.9011  -29.7337 C   0  0  0  0  0  0  0  0  0  0  0  0
  -29.5041   -5.8447  -28.6069 C   0  0  0  0  0  0  0  0  0  0  0  0
  1  2  2  3
  1  3  1  0
  2  4  1  0
  4  5  1  0
  5  6  2  3
  6  7  1  0
M  END
>  <name>  (10) 
Car Nac Nd0 Car Car Car Car

>  <indices>  (10) 
[0, 1, 2]

>  <dummy>  (10) 
2

>  <tasks>  (10) 
probe_placing close_aromatic_ring close_aromatic_ring close_aromatic_ring

>  <current_task>  (10) 
close_aromatic_ring

>  <prot_clashes>  (10) 
0

>  <NBS phar>  (10) 
0.22000000000000003

>  <NBS_non-phar>  (10) 
0.8525343736012777

>  <NBS>  (10) 
1.0725343736012778

>  <source_stage>  (10) 
scored

>  <source_iter>  (10) 
3

>  <source_parent_mol>  (10) 
0

>  <source_scenario>  (10) 
1 0 0

>  <source_rank_in_scored_call>  (10) 
1

>  <source_current_task>  (10) 
close_aromatic_ring

>  <scenario>  (10) 
1 0 0

>  <rotatable_bond_torsions>  (10) 
0,1,3,4;1,3,4,5

>  <reason_to_skip>  (10) 
incorrect arom ring closing

$$$$

     RDKit          3D

  7  6  0  0  0  0  0  0  0  0999 V2000
  -27.8640   -7.4760  -31.1990 C   0  0  0  0  0  0  0  0  0  0  0  0
  -27.5380   -6.7190  -32.2850 N   0  0  0  0  0  0  0  0  0  0  0  0
  -27.6840   -8.8650  -31.2620 N   0  0  0  0  0  0  0  0  0  0  0  0
  -27.8024   -5.3830  -31.8813 C   0  0  0  0  0  0  0  0  0  0  0  0
  -28.2578   -4.8905  -30.7215 C   0  0  0  0  0  0  0  0  0  0  0  0
  -28.5306   -5.9011  -29.7337 C   0  0  0  0  0  0  0  0  0  0  0  0
  -29.1033   -5.4329  -28.4862 C   0  0  0  0  0  0  0  0  0  0  0  0
  1  2  2  3
  1  3  1  0
  2  4  1  0
  4  5  1  0
  5  6  2  3
  6  7  1  0
M  END
>  <name>  (11) 
Car Nac Nd0 Car Car Car Car

>  <indices>  (11) 
[0, 1, 2]

>  <dummy>  (11) 
2

>  <tasks>  (11) 
probe_placing close_aromatic_ring close_aromatic_ring close_aromatic_ring

>  <current_task>  (11) 
close_aromatic_ring

>  <prot_clashes>  (11) 
0

>  <NBS phar>  (11) 
0.22000000000000003

>  <NBS_non-phar>  (11) 
0.8525343736012777

>  <NBS>  (11) 
1.0725343736012778

>  <source_stage>  (11) 
scored

>  <source_iter>  (11) 
3

>  <source_parent_mol>  (11) 
0

>  <source_scenario>  (11) 
1 0 0

>  <source_rank_in_scored_call>  (11) 
1

>  <source_current_task>  (11) 
close_aromatic_ring

>  <scenario>  (11) 
1 0 0

>  <rotatable_bond_torsions>  (11) 
0,1,3,4;1,3,4,5

>  <reason_to_skip>  (11) 
incorrect arom ring closing

$$$$

     RDKit          3D

  7  6  0  0  0  0  0  0  0  0999 V2000
  -27.8640   -7.4760  -31.1990 C   0  0  0  0  0  0  0  0  0  0  0  0
  -27.5380   -6.7190  -32.2850 N   0  0  0  0  0  0  0  0  0  0  0  0
  -27.6840   -8.8650  -31.2620 N   0  0  0  0  0  0  0  0  0  0  0  0
  -27.8024   -5.3830  -31.8813 C   0  0  0  0  0  0  0  0  0  0  0  0
  -28.2578   -4.8905  -30.7215 C   0  0  0  0  0  0  0  0  0  0  0  0
  -28.5306   -5.9011  -29.7337 C   0  0  0  0  0  0  0  0  0  0  0  0
  -28.4455   -7.2498  -29.5871 N   0  0  0  0  0  0  0  0  0  0  0  0
  1  2  2  3
  1  3  1  0
  2  4  1  0
  4  5  1  0
  5  6  2  3
  6  7  1  0
M  END
>  <name>  (12) 
Car Nac Nd0 Car Car Car Nd0

>  <indices>  (12) 
[0, 1, 2]

>  <dummy>  (12) 
2

>  <tasks>  (12) 
probe_placing close_aromatic_ring close_aromatic_ring close_aromatic_ring

>  <current_task>  (12) 
close_aromatic_ring

>  <prot_clashes>  (12) 
0

>  <NBS phar>  (12) 
0.22000000000000003

>  <NBS_non-phar>  (12) 
0.8525343736012777

>  <NBS>  (12) 
1.0725343736012778

>  <source_stage>  (12) 
scored

>  <source_iter>  (12) 
3

>  <source_parent_mol>  (12) 
0

>  <source_scenario>  (12) 
1 0 0

>  <source_rank_in_scored_call>  (12) 
1

>  <source_current_task>  (12) 
close_aromatic_ring

>  <scenario>  (12) 
1 0 0

>  <rotatable_bond_torsions>  (12) 
0,1,3,4;1,3,4,5

>  <reason_to_skip>  (12) 
bad angles

$$$$

     RDKit          3D

  7  7  0  0  0  0  0  0  0  0999 V2000
  -27.7495   -7.5513  -31.1607 C   0  0  0  0  0  0  0  0  0  0  0  0
  -27.6149   -6.7508  -32.1512 N   0  0  0  0  0  0  0  0  0  0  0  0
  -27.6840   -8.8650  -31.2620 N   0  0  0  0  0  0  0  0  0  0  0  0
  -27.7547   -5.3529  -31.9464 C   0  0  0  0  0  0  0  0  0  0  0  0
  -28.3465   -4.8980  -30.6657 C   0  0  0  0  0  0  0  0  0  0  0  0
  -28.4426   -5.7834  -29.6680 C   0  0  0  0  0  0  0  0  0  0  0  0
  -28.0655   -7.1424  -29.8094 N   0  0  0  0  0  0  0  0  0  0  0  0
  1  2  2  0
  1  3  1  0
  2  4  1  0
  4  5  1  0
  5  6  2  0
  6  7  1  0
  1  7  1  0
M  END
>  <name>  (13) 
Car Nac Nd0 Car Car Car Nac

>  <indices>  (13) 
[0, 1, 2]

>  <dummy>  (13) 
2

>  <tasks>  (13) 
probe_placing close_aromatic_ring close_aromatic_ring close_aromatic_ring

>  <current_task>  (13) 
close_aromatic_ring

>  <prot_clashes>  (13) 
0

>  <NBS phar>  (13) 
0.22000000000000003

>  <NBS_non-phar>  (13) 
0.8525343736012777

>  <NBS>  (13) 
1.0725343736012778

>  <source_stage>  (13) 
scored

>  <source_iter>  (13) 
3

>  <source_parent_mol>  (13) 
0

>  <source_scenario>  (13) 
1 0 0

>  <source_rank_in_scored_call>  (13) 
1

>  <source_current_task>  (13) 
close_aromatic_ring

>  <scenario>  (13) 
1 0 0

>  <rotatable_bond_torsions>  (13) 
0,1,3,4;1,3,4,5

>  <reason_to_skip>  (13) 
Car-Nac-DB dihedral

$$$$

     RDKit          3D

  7  6  0  0  0  0  0  0  0  0999 V2000
  -27.8640   -7.4760  -31.1990 C   0  0  0  0  0  0  0  0  0  0  0  0
  -27.5380   -6.7190  -32.2850 N   0  0  0  0  0  0  0  0  0  0  0  0
  -27.6840   -8.8650  -31.2620 N   0  0  0  0  0  0  0  0  0  0  0  0
  -27.8024   -5.3830  -31.8813 C   0  0  0  0  0  0  0  0  0  0  0  0
  -28.2578   -4.8905  -30.7215 C   0  0  0  0  0  0  0  0  0  0  0  0
  -28.5306   -5.9011  -29.7337 C   0  0  0  0  0  0  0  0  0  0  0  0
  -29.5197   -5.7308  -28.7386 N   0  0  0  0  0  0  0  0  0  0  0  0
  1  2  2  3
  1  3  1  0
  2  4  1  0
  4  5  1  0
  5  6  2  3
  6  7  1  0
M  END
>  <name>  (14) 
Car Nac Nd0 Car Car Car Nac

>  <indices>  (14) 
[0, 1, 2]

>  <dummy>  (14) 
2

>  <tasks>  (14) 
probe_placing close_aromatic_ring close_aromatic_ring close_aromatic_ring

>  <current_task>  (14) 
close_aromatic_ring

>  <prot_clashes>  (14) 
0

>  <NBS phar>  (14) 
0.22000000000000003

>  <NBS_non-phar>  (14) 
0.8525343736012777

>  <NBS>  (14) 
1.0725343736012778

>  <source_stage>  (14) 
scored

>  <source_iter>  (14) 
3

>  <source_parent_mol>  (14) 
0

>  <source_scenario>  (14) 
1 0 0

>  <source_rank_in_scored_call>  (14) 
1

>  <source_current_task>  (14) 
close_aromatic_ring

>  <scenario>  (14) 
1 0 0

>  <rotatable_bond_torsions>  (14) 
0,1,3,4;1,3,4,5

>  <reason_to_skip>  (14) 
incorrect arom ring closing

$$$$

     RDKit          3D

  7  6  0  0  0  0  0  0  0  0999 V2000
  -27.8640   -7.4760  -31.1990 C   0  0  0  0  0  0  0  0  0  0  0  0
  -27.5380   -6.7190  -32.2850 N   0  0  0  0  0  0  0  0  0  0  0  0
  -27.6840   -8.8650  -31.2620 N   0  0  0  0  0  0  0  0  0  0  0  0
  -27.8024   -5.3830  -31.8813 C   0  0  0  0  0  0  0  0  0  0  0  0
  -28.2578   -4.8905  -30.7215 C   0  0  0  0  0  0  0  0  0  0  0  0
  -28.5306   -5.9011  -29.7337 C   0  0  0  0  0  0  0  0  0  0  0  0
  -29.0291   -5.4847  -28.4745 N   0  0  0  0  0  0  0  0  0  0  0  0
  1  2  2  3
  1  3  1  0
  2  4  1  0
  4  5  1  0
  5  6  2  3
  6  7  1  0
M  END
>  <name>  (15) 
Car Nac Nd0 Car Car Car Nd0

>  <indices>  (15) 
[0, 1, 2]

>  <dummy>  (15) 
2

>  <tasks>  (15) 
probe_placing close_aromatic_ring close_aromatic_ring close_aromatic_ring

>  <current_task>  (15) 
close_aromatic_ring

>  <prot_clashes>  (15) 
0

>  <NBS phar>  (15) 
0.22000000000000003

>  <NBS_non-phar>  (15) 
0.8525343736012777

>  <NBS>  (15) 
1.0725343736012778

>  <source_stage>  (15) 
scored

>  <source_iter>  (15) 
3

>  <source_parent_mol>  (15) 
0

>  <source_scenario>  (15) 
1 0 0

>  <source_rank_in_scored_call>  (15) 
1

>  <source_current_task>  (15) 
close_aromatic_ring

>  <scenario>  (15) 
1 0 0

>  <rotatable_bond_torsions>  (15) 
0,1,3,4;1,3,4,5

>  <reason_to_skip>  (15) 
incorrect arom ring closing

$$$$

     RDKit          3D

  7  7  0  0  0  0  0  0  0  0999 V2000
  -27.8451   -7.5807  -31.2405 C   0  0  0  0  0  0  0  0  0  0  0  0
  -27.5919   -6.7240  -32.1374 N   0  0  0  0  0  0  0  0  0  0  0  0
  -27.6840   -8.8650  -31.2620 N   0  0  0  0  0  0  0  0  0  0  0  0
  -27.7614   -5.2960  -32.0022 C   0  0  0  0  0  0  0  0  0  0  0  0
  -28.2784   -4.9507  -30.6580 C   0  0  0  0  0  0  0  0  0  0  0  0
  -28.5461   -5.8349  -29.7146 C   0  0  0  0  0  0  0  0  0  0  0  0
  -28.3405   -7.2096  -29.9612 N   0  0  0  0  0  0  0  0  0  0  0  0
  1  2  2  0
  1  3  1  0
  2  4  1  0
  4  5  1  0
  5  6  2  0
  6  7  1  0
  1  7  1  0
M  END
>  <name>  (16) 
Car Nac Nd0 Car Car Car Nd0

>  <indices>  (16) 
[0, 1, 2]

>  <dummy>  (16) 
2

>  <tasks>  (16) 
probe_placing close_aromatic_ring close_aromatic_ring close_aromatic_ring

>  <current_task>  (16) 
close_aromatic_ring

>  <prot_clashes>  (16) 
0

>  <NBS phar>  (16) 
0.22000000000000003

>  <NBS_non-phar>  (16) 
0.8525343736012777

>  <NBS>  (16) 
1.0725343736012778

>  <source_stage>  (16) 
scored

>  <source_iter>  (16) 
3

>  <source_parent_mol>  (16) 
0

>  <source_scenario>  (16) 
1 0 0

>  <source_rank_in_scored_call>  (16) 
1

>  <source_current_task>  (16) 
close_aromatic_ring

>  <scenario>  (16) 
1 0 0

>  <rotatable_bond_torsions>  (16) 
0,1,3,4;1,3,4,5

>  <reason_to_skip>  (16) 
parallel arom DB

$$$$

     RDKit          3D

  7  6  0  0  0  0  0  0  0  0999 V2000
  -27.8640   -7.4760  -31.1990 C   0  0  0  0  0  0  0  0  0  0  0  0
  -27.5380   -6.7190  -32.2850 N   0  0  0  0  0  0  0  0  0  0  0  0
  -27.6840   -8.8650  -31.2620 N   0  0  0  0  0  0  0  0  0  0  0  0
  -27.8024   -5.3830  -31.8813 C   0  0  0  0  0  0  0  0  0  0  0  0
  -28.2578   -4.8905  -30.7215 C   0  0  0  0  0  0  0  0  0  0  0  0
  -28.5306   -5.9011  -29.7337 C   0  0  0  0  0  0  0  0  0  0  0  0
  -29.0972   -5.4215  -28.3163 C   0  0  0  0  0  0  0  0  0  0  0  0
  1  2  2  3
  1  3  1  0
  2  4  1  0
  4  5  1  0
  5  6  2  3
  6  7  1  0
M  END
>  <name>  (17) 
Car Nac Nd0 Car Car Car Car

>  <indices>  (17) 
[0, 1, 2]

>  <dummy>  (17) 
2

>  <tasks>  (17) 
probe_placing close_aromatic_ring close_aromatic_ring close_aromatic_ring

>  <current_task>  (17) 
close_aromatic_ring

>  <prot_clashes>  (17) 
0

>  <NBS phar>  (17) 
0.22000000000000003

>  <NBS_non-phar>  (17) 
0.8525343736012777

>  <NBS>  (17) 
1.0725343736012778

>  <source_stage>  (17) 
scored

>  <source_iter>  (17) 
3

>  <source_parent_mol>  (17) 
0

>  <source_scenario>  (17) 
1 0 0

>  <source_rank_in_scored_call>  (17) 
1

>  <source_current_task>  (17) 
close_aromatic_ring

>  <scenario>  (17) 
1 0 0

>  <rotatable_bond_torsions>  (17) 
0,1,3,4;1,3,4,5

>  <reason_to_skip>  (17) 
incorrect arom ring closing

$$$$

     RDKit          3D

  7  7  0  0  0  0  0  0  0  0999 V2000
  -27.8840   -7.5892  -31.2015 C   0  0  0  0  0  0  0  0  0  0  0  0
  -27.5879   -6.7468  -32.2015 N   0  0  0  0  0  0  0  0  0  0  0  0
  -27.6840   -8.8650  -31.2620 N   0  0  0  0  0  0  0  0  0  0  0  0
  -27.7122   -5.3131  -31.9631 C   0  0  0  0  0  0  0  0  0  0  0  0
  -28.3187   -5.0041  -30.6525 C   0  0  0  0  0  0  0  0  0  0  0  0
  -28.5923   -5.7608  -29.6246 C   0  0  0  0  0  0  0  0  0  0  0  0
  -28.3116   -7.1804  -29.9411 N   0  0  0  0  0  0  0  0  0  0  0  0
  1  2  2  0
  1  3  1  0
  2  4  1  0
  4  5  1  0
  5  6  2  0
  6  7  1  0
  1  7  1  0
M  END
>  <name>  (18) 
Car Nac Nd0 Car Car Car Nd0

>  <indices>  (18) 
[0, 1, 2]

>  <dummy>  (18) 
2

>  <tasks>  (18) 
probe_placing close_aromatic_ring close_aromatic_ring close_aromatic_ring

>  <current_task>  (18) 
close_aromatic_ring

>  <prot_clashes>  (18) 
0

>  <NBS phar>  (18) 
0.22000000000000003

>  <NBS_non-phar>  (18) 
0.8525343736012777

>  <NBS>  (18) 
1.0725343736012778

>  <source_stage>  (18) 
scored

>  <source_iter>  (18) 
3

>  <source_parent_mol>  (18) 
0

>  <source_scenario>  (18) 
1 0 0

>  <source_rank_in_scored_call>  (18) 
1

>  <source_current_task>  (18) 
close_aromatic_ring

>  <scenario>  (18) 
1 0 0

>  <rotatable_bond_torsions>  (18) 
0,1,3,4;1,3,4,5

>  <reason_to_skip>  (18) 
parallel arom DB

$$$$

     RDKit          3D

  7  6  0  0  0  0  0  0  0  0999 V2000
  -27.8640   -7.4760  -31.1990 C   0  0  0  0  0  0  0  0  0  0  0  0
  -27.5380   -6.7190  -32.2850 N   0  0  0  0  0  0  0  0  0  0  0  0
  -27.6840   -8.8650  -31.2620 N   0  0  0  0  0  0  0  0  0  0  0  0
  -27.8024   -5.3830  -31.8813 C   0  0  0  0  0  0  0  0  0  0  0  0
  -28.2578   -4.8905  -30.7215 C   0  0  0  0  0  0  0  0  0  0  0  0
  -28.5306   -5.9011  -29.7337 C   0  0  0  0  0  0  0  0  0  0  0  0
    0.0000    0.0000    0.0000 O   0  0  0  0  0  0  0  0  0  0  0  0
  1  2  2  3
  1  3  1  0
  2  4  1  0
  4  5  1  0
  5  6  2  3
  6  7  1  0
M  END
>  <name>  (19) 
Car Nac Nd0 Car Car Car O_a

>  <indices>  (19) 
[0, 1, 2]

>  <dummy>  (19) 
2

>  <tasks>  (19) 
probe_placing close_aromatic_ring close_aromatic_ring close_aromatic_ring

>  <current_task>  (19) 
close_aromatic_ring

>  <prot_clashes>  (19) 
0

>  <NBS phar>  (19) 
0.22000000000000003

>  <NBS_non-phar>  (19) 
0.8525343736012777

>  <NBS>  (19) 
1.0725343736012778

>  <source_stage>  (19) 
scored

>  <source_iter>  (19) 
3

>  <source_parent_mol>  (19) 
0

>  <source_scenario>  (19) 
1 0 0

>  <source_rank_in_scored_call>  (19) 
1

>  <source_current_task>  (19) 
close_aromatic_ring

>  <scenario>  (19) 
1 0 0

>  <rotatable_bond_torsions>  (19) 
0,1,3,4;1,3,4,5

>  <reason_to_skip>  (19) 
some_atom_counter_exceeded

$$$$

     RDKit          3D

  7  6  0  0  0  0  0  0  0  0999 V2000
  -27.8640   -7.4760  -31.1990 C   0  0  0  0  0  0  0  0  0  0  0  0
  -27.5380   -6.7190  -32.2850 N   0  0  0  0  0  0  0  0  0  0  0  0
  -27.6840   -8.8650  -31.2620 N   0  0  0  0  0  0  0  0  0  0  0  0
  -27.8024   -5.3830  -31.8813 C   0  0  0  0  0  0  0  0  0  0  0  0
  -28.2578   -4.8905  -30.7215 C   0  0  0  0  0  0  0  0  0  0  0  0
  -28.5306   -5.9011  -29.7337 C   0  0  0  0  0  0  0  0  0  0  0  0
  -28.1975   -7.1617  -30.4130 C   0  0  0  0  0  0  0  0  0  0  0  0
  1  2  2  3
  1  3  1  0
  2  4  1  0
  4  5  1  0
  5  6  2  3
  6  7  1  0
M  END
>  <name>  (20) 
Car Nac Nd0 Car Car Car Car

>  <indices>  (20) 
[0, 1, 2]

>  <dummy>  (20) 
2

>  <tasks>  (20) 
probe_placing close_aromatic_ring close_aromatic_ring close_aromatic_ring

>  <current_task>  (20) 
close_aromatic_ring

>  <prot_clashes>  (20) 
0

>  <NBS phar>  (20) 
0.22000000000000003

>  <NBS_non-phar>  (20) 
0.8525343736012777

>  <NBS>  (20) 
1.0725343736012778

>  <source_stage>  (20) 
scored

>  <source_iter>  (20) 
3

>  <source_parent_mol>  (20) 
0

>  <source_scenario>  (20) 
1 0 0

>  <source_rank_in_scored_call>  (20) 
1

>  <source_current_task>  (20) 
close_aromatic_ring

>  <scenario>  (20) 
1 0 0

>  <rotatable_bond_torsions>  (20) 
0,1,3,4;1,3,4,5

>  <reason_to_skip>  (20) 
incorrect arom ring closing

$$$$

     RDKit          3D

  7  6  0  0  0  0  0  0  0  0999 V2000
  -27.8640   -7.4760  -31.1990 C   0  0  0  0  0  0  0  0  0  0  0  0
  -27.5380   -6.7190  -32.2850 N   0  0  0  0  0  0  0  0  0  0  0  0
  -27.6840   -8.8650  -31.2620 N   0  0  0  0  0  0  0  0  0  0  0  0
  -27.8024   -5.3830  -31.8813 C   0  0  0  0  0  0  0  0  0  0  0  0
  -28.2578   -4.8905  -30.7215 C   0  0  0  0  0  0  0  0  0  0  0  0
  -28.5306   -5.9011  -29.7337 C   0  0  0  0  0  0  0  0  0  0  0  0
  -28.1872   -7.1204  -30.4285 N   0  0  0  0  0  0  0  0  0  0  0  0
  1  2  2  3
  1  3  1  0
  2  4  1  0
  4  5  1  0
  5  6  2  3
  6  7  1  0
M  END
>  <name>  (21) 
Car Nac Nd0 Car Car Car Nac

>  <indices>  (21) 
[0, 1, 2]

>  <dummy>  (21) 
2

>  <tasks>  (21) 
probe_placing close_aromatic_ring close_aromatic_ring close_aromatic_ring

>  <current_task>  (21) 
close_aromatic_ring

>  <prot_clashes>  (21) 
0

>  <NBS phar>  (21) 
0.22000000000000003

>  <NBS_non-phar>  (21) 
0.8525343736012777

>  <NBS>  (21) 
1.0725343736012778

>  <source_stage>  (21) 
scored

>  <source_iter>  (21) 
3

>  <source_parent_mol>  (21) 
0

>  <source_scenario>  (21) 
1 0 0

>  <source_rank_in_scored_call>  (21) 
1

>  <source_current_task>  (21) 
close_aromatic_ring

>  <scenario>  (21) 
1 0 0

>  <rotatable_bond_torsions>  (21) 
0,1,3,4;1,3,4,5

>  <reason_to_skip>  (21) 
incorrect arom ring closing

$$$$

     RDKit          3D

  7  6  0  0  0  0  0  0  0  0999 V2000
  -27.8640   -7.4760  -31.1990 C   0  0  0  0  0  0  0  0  0  0  0  0
  -27.5380   -6.7190  -32.2850 N   0  0  0  0  0  0  0  0  0  0  0  0
  -27.6840   -8.8650  -31.2620 N   0  0  0  0  0  0  0  0  0  0  0  0
  -27.8024   -5.3830  -31.8813 C   0  0  0  0  0  0  0  0  0  0  0  0
  -28.2578   -4.8905  -30.7215 C   0  0  0  0  0  0  0  0  0  0  0  0
  -28.5306   -5.9011  -29.7337 C   0  0  0  0  0  0  0  0  0  0  0  0
  -28.1904   -7.1058  -30.3673 N   0  0  0  0  0  0  0  0  0  0  0  0
  1  2  2  3
  1  3  1  0
  2  4  1  0
  4  5  1  0
  5  6  2  3
  6  7  1  0
M  END
>  <name>  (22) 
Car Nac Nd0 Car Car Car Nd0

>  <indices>  (22) 
[0, 1, 2]

>  <dummy>  (22) 
2

>  <tasks>  (22) 
probe_placing close_aromatic_ring close_aromatic_ring close_aromatic_ring

>  <current_task>  (22) 
close_aromatic_ring

>  <prot_clashes>  (22) 
0

>  <NBS phar>  (22) 
0.22000000000000003

>  <NBS_non-phar>  (22) 
0.8525343736012777

>  <NBS>  (22) 
1.0725343736012778

>  <source_stage>  (22) 
scored

>  <source_iter>  (22) 
3

>  <source_parent_mol>  (22) 
0

>  <source_scenario>  (22) 
1 0 0

>  <source_rank_in_scored_call>  (22) 
1

>  <source_current_task>  (22) 
close_aromatic_ring

>  <scenario>  (22) 
1 0 0

>  <rotatable_bond_torsions>  (22) 
0,1,3,4;1,3,4,5

>  <reason_to_skip>  (22) 
incorrect arom ring closing

$$$$

     RDKit          3D

  7  6  0  0  0  0  0  0  0  0999 V2000
  -27.8640   -7.4760  -31.1990 C   0  0  0  0  0  0  0  0  0  0  0  0
  -27.5380   -6.7190  -32.2850 N   0  0  0  0  0  0  0  0  0  0  0  0
  -27.6840   -8.8650  -31.2620 N   0  0  0  0  0  0  0  0  0  0  0  0
  -27.8024   -5.3830  -31.8813 C   0  0  0  0  0  0  0  0  0  0  0  0
  -28.2578   -4.8905  -30.7215 C   0  0  0  0  0  0  0  0  0  0  0  0
  -28.5306   -5.9011  -29.7337 C   0  0  0  0  0  0  0  0  0  0  0  0
  -27.8244   -5.9787  -28.4336 N   0  0  0  0  0  0  0  0  0  0  0  0
  1  2  2  3
  1  3  1  0
  2  4  1  0
  4  5  1  0
  5  6  2  3
  6  7  1  0
M  END
>  <name>  (23) 
Car Nac Nd0 Car Car Car Nac

>  <indices>  (23) 
[0, 1, 2]

>  <dummy>  (23) 
2

>  <tasks>  (23) 
probe_placing close_aromatic_ring close_aromatic_ring close_aromatic_ring

>  <current_task>  (23) 
close_aromatic_ring

>  <prot_clashes>  (23) 
0

>  <NBS phar>  (23) 
0.22000000000000003

>  <NBS_non-phar>  (23) 
0.8525343736012777

>  <NBS>  (23) 
1.0725343736012778

>  <source_stage>  (23) 
scored

>  <source_iter>  (23) 
3

>  <source_parent_mol>  (23) 
0

>  <source_scenario>  (23) 
1 0 0

>  <source_rank_in_scored_call>  (23) 
1

>  <source_current_task>  (23) 
close_aromatic_ring

>  <scenario>  (23) 
1 0 0

>  <rotatable_bond_torsions>  (23) 
0,1,3,4;1,3,4,5

>  <reason_to_skip>  (23) 
incorrect arom ring closing

$$$$

     RDKit          3D

  7  6  0  0  0  0  0  0  0  0999 V2000
  -27.8640   -7.4760  -31.1990 C   0  0  0  0  0  0  0  0  0  0  0  0
  -27.5380   -6.7190  -32.2850 N   0  0  0  0  0  0  0  0  0  0  0  0
  -27.6840   -8.8650  -31.2620 N   0  0  0  0  0  0  0  0  0  0  0  0
  -27.8024   -5.3830  -31.8813 C   0  0  0  0  0  0  0  0  0  0  0  0
  -28.2578   -4.8905  -30.7215 C   0  0  0  0  0  0  0  0  0  0  0  0
  -28.5306   -5.9011  -29.7337 C   0  0  0  0  0  0  0  0  0  0  0  0
  -27.9558   -5.6898  -28.3548 C   0  0  0  0  0  0  0  0  0  0  0  0
  1  2  2  3
  1  3  1  0
  2  4  1  0
  4  5  1  0
  5  6  2  3
  6  7  1  0
M  END
>  <name>  (24) 
Car Nac Nd0 Car Car Car Car

>  <indices>  (24) 
[0, 1, 2]

>  <dummy>  (24) 
2

>  <tasks>  (24) 
probe_placing close_aromatic_ring close_aromatic_ring close_aromatic_ring

>  <current_task>  (24) 
close_aromatic_ring

>  <prot_clashes>  (24) 
0

>  <NBS phar>  (24) 
0.22000000000000003

>  <NBS_non-phar>  (24) 
0.8525343736012777

>  <NBS>  (24) 
1.0725343736012778

>  <source_stage>  (24) 
scored

>  <source_iter>  (24) 
3

>  <source_parent_mol>  (24) 
0

>  <source_scenario>  (24) 
1 0 0

>  <source_rank_in_scored_call>  (24) 
1

>  <source_current_task>  (24) 
close_aromatic_ring

>  <scenario>  (24) 
1 0 0

>  <rotatable_bond_torsions>  (24) 
0,1,3,4;1,3,4,5

>  <reason_to_skip>  (24) 
incorrect arom ring closing

$$$$

     RDKit          3D

  7  6  0  0  0  0  0  0  0  0999 V2000
  -27.8640   -7.4760  -31.1990 C   0  0  0  0  0  0  0  0  0  0  0  0
  -27.5380   -6.7190  -32.2850 N   0  0  0  0  0  0  0  0  0  0  0  0
  -27.6840   -8.8650  -31.2620 N   0  0  0  0  0  0  0  0  0  0  0  0
  -27.8024   -5.3830  -31.8813 C   0  0  0  0  0  0  0  0  0  0  0  0
  -28.2578   -4.8905  -30.7215 C   0  0  0  0  0  0  0  0  0  0  0  0
  -28.5306   -5.9011  -29.7337 C   0  0  0  0  0  0  0  0  0  0  0  0
  -29.6528   -6.7966  -29.6235 N   0  0  0  0  0  0  0  0  0  0  0  0
  1  2  2  3
  1  3  1  0
  2  4  1  0
  4  5  1  0
  5  6  2  3
  6  7  1  0
M  END
>  <name>  (25) 
Car Nac Nd0 Car Car Car Nac

>  <indices>  (25) 
[0, 1, 2]

>  <dummy>  (25) 
2

>  <tasks>  (25) 
probe_placing close_aromatic_ring close_aromatic_ring close_aromatic_ring

>  <current_task>  (25) 
close_aromatic_ring

>  <prot_clashes>  (25) 
0

>  <NBS phar>  (25) 
0.22000000000000003

>  <NBS_non-phar>  (25) 
0.8525343736012777

>  <NBS>  (25) 
1.0725343736012778

>  <source_stage>  (25) 
scored

>  <source_iter>  (25) 
3

>  <source_parent_mol>  (25) 
0

>  <source_scenario>  (25) 
1 0 0

>  <source_rank_in_scored_call>  (25) 
1

>  <source_current_task>  (25) 
close_aromatic_ring

>  <scenario>  (25) 
1 0 0

>  <rotatable_bond_torsions>  (25) 
0,1,3,4;1,3,4,5

>  <reason_to_skip>  (25) 
incorrect arom ring closing

$$$$

     RDKit          3D

  7  6  0  0  0  0  0  0  0  0999 V2000
  -27.8640   -7.4760  -31.1990 C   0  0  0  0  0  0  0  0  0  0  0  0
  -27.5380   -6.7190  -32.2850 N   0  0  0  0  0  0  0  0  0  0  0  0
  -27.6840   -8.8650  -31.2620 N   0  0  0  0  0  0  0  0  0  0  0  0
  -27.8024   -5.3830  -31.8813 C   0  0  0  0  0  0  0  0  0  0  0  0
  -28.2578   -4.8905  -30.7215 C   0  0  0  0  0  0  0  0  0  0  0  0
  -28.5306   -5.9011  -29.7337 C   0  0  0  0  0  0  0  0  0  0  0  0
  -27.9703   -5.8586  -28.3957 N   0  0  0  0  0  0  0  0  0  0  0  0
  1  2  2  3
  1  3  1  0
  2  4  1  0
  4  5  1  0
  5  6  2  3
  6  7  1  0
M  END
>  <name>  (26) 
Car Nac Nd0 Car Car Car Nd0

>  <indices>  (26) 
[0, 1, 2]

>  <dummy>  (26) 
2

>  <tasks>  (26) 
probe_placing close_aromatic_ring close_aromatic_ring close_aromatic_ring

>  <current_task>  (26) 
close_aromatic_ring

>  <prot_clashes>  (26) 
0

>  <NBS phar>  (26) 
0.22000000000000003

>  <NBS_non-phar>  (26) 
0.8525343736012777

>  <NBS>  (26) 
1.0725343736012778

>  <source_stage>  (26) 
scored

>  <source_iter>  (26) 
3

>  <source_parent_mol>  (26) 
0

>  <source_scenario>  (26) 
1 0 0

>  <source_rank_in_scored_call>  (26) 
1

>  <source_current_task>  (26) 
close_aromatic_ring

>  <scenario>  (26) 
1 0 0

>  <rotatable_bond_torsions>  (26) 
0,1,3,4;1,3,4,5

>  <reason_to_skip>  (26) 
incorrect arom ring closing

$$$$

     RDKit          3D

  7  6  0  0  0  0  0  0  0  0999 V2000
  -27.8640   -7.4760  -31.1990 C   0  0  0  0  0  0  0  0  0  0  0  0
  -27.5380   -6.7190  -32.2850 N   0  0  0  0  0  0  0  0  0  0  0  0
  -27.6840   -8.8650  -31.2620 N   0  0  0  0  0  0  0  0  0  0  0  0
  -27.8024   -5.3830  -31.8813 C   0  0  0  0  0  0  0  0  0  0  0  0
  -28.2578   -4.8905  -30.7215 C   0  0  0  0  0  0  0  0  0  0  0  0
  -28.5306   -5.9011  -29.7337 C   0  0  0  0  0  0  0  0  0  0  0  0
    0.0000    0.0000    0.0000 O   0  0  0  0  0  0  0  0  0  0  0  0
  1  2  2  3
  1  3  1  0
  2  4  1  0
  4  5  1  0
  5  6  2  3
  6  7  1  0
M  END
>  <name>  (27) 
Car Nac Nd0 Car Car Car O_a

>  <indices>  (27) 
[0, 1, 2]

>  <dummy>  (27) 
2

>  <tasks>  (27) 
probe_placing close_aromatic_ring close_aromatic_ring close_aromatic_ring

>  <current_task>  (27) 
close_aromatic_ring

>  <prot_clashes>  (27) 
0

>  <NBS phar>  (27) 
0.22000000000000003

>  <NBS_non-phar>  (27) 
0.8525343736012777

>  <NBS>  (27) 
1.0725343736012778

>  <source_stage>  (27) 
scored

>  <source_iter>  (27) 
3

>  <source_parent_mol>  (27) 
0

>  <source_scenario>  (27) 
1 0 0

>  <source_rank_in_scored_call>  (27) 
1

>  <source_current_task>  (27) 
close_aromatic_ring

>  <scenario>  (27) 
1 0 0

>  <rotatable_bond_torsions>  (27) 
0,1,3,4;1,3,4,5

>  <reason_to_skip>  (27) 
some_atom_counter_exceeded

$$$$

     RDKit          3D

  7  6  0  0  0  0  0  0  0  0999 V2000
  -27.8640   -7.4760  -31.1990 C   0  0  0  0  0  0  0  0  0  0  0  0
  -27.5380   -6.7190  -32.2850 N   0  0  0  0  0  0  0  0  0  0  0  0
  -27.6840   -8.8650  -31.2620 N   0  0  0  0  0  0  0  0  0  0  0  0
  -27.8024   -5.3830  -31.8813 C   0  0  0  0  0  0  0  0  0  0  0  0
  -28.2578   -4.8905  -30.7215 C   0  0  0  0  0  0  0  0  0  0  0  0
  -28.5306   -5.9011  -29.7337 C   0  0  0  0  0  0  0  0  0  0  0  0
  -27.7845   -5.9819  -28.5042 C   0  0  0  0  0  0  0  0  0  0  0  0
  1  2  2  3
  1  3  1  0
  2  4  1  0
  4  5  1  0
  5  6  2  3
  6  7  1  0
M  END
>  <name>  (28) 
Car Nac Nd0 Car Car Car Car

>  <indices>  (28) 
[0, 1, 2]

>  <dummy>  (28) 
2

>  <tasks>  (28) 
probe_placing close_aromatic_ring close_aromatic_ring close_aromatic_ring

>  <current_task>  (28) 
close_aromatic_ring

>  <prot_clashes>  (28) 
0

>  <NBS phar>  (28) 
0.22000000000000003

>  <NBS_non-phar>  (28) 
0.8525343736012777

>  <NBS>  (28) 
1.0725343736012778

>  <source_stage>  (28) 
scored

>  <source_iter>  (28) 
3

>  <source_parent_mol>  (28) 
0

>  <source_scenario>  (28) 
1 0 0

>  <source_rank_in_scored_call>  (28) 
1

>  <source_current_task>  (28) 
close_aromatic_ring

>  <scenario>  (28) 
1 0 0

>  <rotatable_bond_torsions>  (28) 
0,1,3,4;1,3,4,5

>  <reason_to_skip>  (28) 
incorrect arom ring closing

$$$$

     RDKit          3D

  7  6  0  0  0  0  0  0  0  0999 V2000
  -27.8640   -7.4760  -31.1990 C   0  0  0  0  0  0  0  0  0  0  0  0
  -27.5380   -6.7190  -32.2850 N   0  0  0  0  0  0  0  0  0  0  0  0
  -27.6840   -8.8650  -31.2620 N   0  0  0  0  0  0  0  0  0  0  0  0
  -27.8024   -5.3830  -31.8813 C   0  0  0  0  0  0  0  0  0  0  0  0
  -28.2578   -4.8905  -30.7215 C   0  0  0  0  0  0  0  0  0  0  0  0
  -28.5306   -5.9011  -29.7337 C   0  0  0  0  0  0  0  0  0  0  0  0
    0.0000    0.0000    0.0000 S   0  0  0  0  0  0  0  0  0  0  0  0
  1  2  2  3
  1  3  1  0
  2  4  1  0
  4  5  1  0
  5  6  2  3
  6  7  1  0
M  END
>  <name>  (29) 
Car Nac Nd0 Car Car Car Sul

>  <indices>  (29) 
[0, 1, 2]

>  <dummy>  (29) 
2

>  <tasks>  (29) 
probe_placing close_aromatic_ring close_aromatic_ring close_aromatic_ring

>  <current_task>  (29) 
close_aromatic_ring

>  <prot_clashes>  (29) 
0

>  <NBS phar>  (29) 
0.22000000000000003

>  <NBS_non-phar>  (29) 
0.8525343736012777

>  <NBS>  (29) 
1.0725343736012778

>  <source_stage>  (29) 
scored

>  <source_iter>  (29) 
3

>  <source_parent_mol>  (29) 
0

>  <source_scenario>  (29) 
1 0 0

>  <source_rank_in_scored_call>  (29) 
1

>  <source_current_task>  (29) 
close_aromatic_ring

>  <scenario>  (29) 
1 0 0

>  <rotatable_bond_torsions>  (29) 
0,1,3,4;1,3,4,5

>  <reason_to_skip>  (29) 
some_atom_counter_exceeded

$$$$

     RDKit          3D

  7  6  0  0  0  0  0  0  0  0999 V2000
  -27.8640   -7.4760  -31.1990 C   0  0  0  0  0  0  0  0  0  0  0  0
  -27.5380   -6.7190  -32.2850 N   0  0  0  0  0  0  0  0  0  0  0  0
  -27.6840   -8.8650  -31.2620 N   0  0  0  0  0  0  0  0  0  0  0  0
  -27.8024   -5.3830  -31.8813 C   0  0  0  0  0  0  0  0  0  0  0  0
  -28.2578   -4.8905  -30.7215 C   0  0  0  0  0  0  0  0  0  0  0  0
  -28.5306   -5.9011  -29.7337 C   0  0  0  0  0  0  0  0  0  0  0  0
    0.0000    0.0000    0.0000 S   0  0  0  0  0  0  0  0  0  0  0  0
  1  2  2  3
  1  3  1  0
  2  4  1  0
  4  5  1  0
  5  6  2  3
  6  7  1  0
M  END
>  <name>  (30) 
Car Nac Nd0 Car Car Car Sul

>  <indices>  (30) 
[0, 1, 2]

>  <dummy>  (30) 
2

>  <tasks>  (30) 
probe_placing close_aromatic_ring close_aromatic_ring close_aromatic_ring

>  <current_task>  (30) 
close_aromatic_ring

>  <prot_clashes>  (30) 
0

>  <NBS phar>  (30) 
0.22000000000000003

>  <NBS_non-phar>  (30) 
0.8525343736012777

>  <NBS>  (30) 
1.0725343736012778

>  <source_stage>  (30) 
scored

>  <source_iter>  (30) 
3

>  <source_parent_mol>  (30) 
0

>  <source_scenario>  (30) 
1 0 0

>  <source_rank_in_scored_call>  (30) 
1

>  <source_current_task>  (30) 
close_aromatic_ring

>  <scenario>  (30) 
1 0 0

>  <rotatable_bond_torsions>  (30) 
0,1,3,4;1,3,4,5

>  <reason_to_skip>  (30) 
some_atom_counter_exceeded

$$$$

     RDKit          3D

  7  6  0  0  0  0  0  0  0  0999 V2000
  -27.8640   -7.4760  -31.1990 C   0  0  0  0  0  0  0  0  0  0  0  0
  -27.5380   -6.7190  -32.2850 N   0  0  0  0  0  0  0  0  0  0  0  0
  -27.6840   -8.8650  -31.2620 N   0  0  0  0  0  0  0  0  0  0  0  0
  -27.8024   -5.3830  -31.8813 C   0  0  0  0  0  0  0  0  0  0  0  0
  -28.2578   -4.8905  -30.7215 C   0  0  0  0  0  0  0  0  0  0  0  0
  -28.5306   -5.9011  -29.7337 C   0  0  0  0  0  0  0  0  0  0  0  0
  -28.5436   -7.2746  -29.5680 N   0  0  0  0  0  0  0  0  0  0  0  0
  1  2  2  3
  1  3  1  0
  2  4  1  0
  4  5  1  0
  5  6  2  3
  6  7  1  0
M  END
>  <name>  (31) 
Car Nac Nd0 Car Car Car Nac

>  <indices>  (31) 
[0, 1, 2]

>  <dummy>  (31) 
2

>  <tasks>  (31) 
probe_placing close_aromatic_ring close_aromatic_ring close_aromatic_ring

>  <current_task>  (31) 
close_aromatic_ring

>  <prot_clashes>  (31) 
0

>  <NBS phar>  (31) 
0.22000000000000003

>  <NBS_non-phar>  (31) 
0.8525343736012777

>  <NBS>  (31) 
1.0725343736012778

>  <source_stage>  (31) 
scored

>  <source_iter>  (31) 
3

>  <source_parent_mol>  (31) 
0

>  <source_scenario>  (31) 
1 0 0

>  <source_rank_in_scored_call>  (31) 
1

>  <source_current_task>  (31) 
close_aromatic_ring

>  <scenario>  (31) 
1 0 0

>  <rotatable_bond_torsions>  (31) 
0,1,3,4;1,3,4,5

>  <reason_to_skip>  (31) 
bad angles

$$$$

     RDKit          3D

  7  6  0  0  0  0  0  0  0  0999 V2000
  -27.8640   -7.4760  -31.1990 C   0  0  0  0  0  0  0  0  0  0  0  0
  -27.5380   -6.7190  -32.2850 N   0  0  0  0  0  0  0  0  0  0  0  0
  -27.6840   -8.8650  -31.2620 N   0  0  0  0  0  0  0  0  0  0  0  0
  -27.8024   -5.3830  -31.8813 C   0  0  0  0  0  0  0  0  0  0  0  0
  -28.2578   -4.8905  -30.7215 C   0  0  0  0  0  0  0  0  0  0  0  0
  -28.5306   -5.9011  -29.7337 C   0  0  0  0  0  0  0  0  0  0  0  0
    0.0000    0.0000    0.0000 O   0  0  0  0  0  0  0  0  0  0  0  0
  1  2  2  3
  1  3  1  0
  2  4  1  0
  4  5  1  0
  5  6  2  3
  6  7  1  0
M  END
>  <name>  (32) 
Car Nac Nd0 Car Car Car O_a

>  <indices>  (32) 
[0, 1, 2]

>  <dummy>  (32) 
2

>  <tasks>  (32) 
probe_placing close_aromatic_ring close_aromatic_ring close_aromatic_ring

>  <current_task>  (32) 
close_aromatic_ring

>  <prot_clashes>  (32) 
0

>  <NBS phar>  (32) 
0.22000000000000003

>  <NBS_non-phar>  (32) 
0.8525343736012777

>  <NBS>  (32) 
1.0725343736012778

>  <source_stage>  (32) 
scored

>  <source_iter>  (32) 
3

>  <source_parent_mol>  (32) 
0

>  <source_scenario>  (32) 
1 0 0

>  <source_rank_in_scored_call>  (32) 
1

>  <source_current_task>  (32) 
close_aromatic_ring

>  <scenario>  (32) 
1 0 0

>  <rotatable_bond_torsions>  (32) 
0,1,3,4;1,3,4,5

>  <reason_to_skip>  (32) 
some_atom_counter_exceeded

$$$$

     RDKit          3D

  7  6  0  0  0  0  0  0  0  0999 V2000
  -27.8640   -7.4760  -31.1990 C   0  0  0  0  0  0  0  0  0  0  0  0
  -27.5380   -6.7190  -32.2850 N   0  0  0  0  0  0  0  0  0  0  0  0
  -27.6840   -8.8650  -31.2620 N   0  0  0  0  0  0  0  0  0  0  0  0
  -27.8024   -5.3830  -31.8813 C   0  0  0  0  0  0  0  0  0  0  0  0
  -28.2578   -4.8905  -30.7215 C   0  0  0  0  0  0  0  0  0  0  0  0
  -28.5306   -5.9011  -29.7337 C   0  0  0  0  0  0  0  0  0  0  0  0
    0.0000    0.0000    0.0000 O   0  0  0  0  0  0  0  0  0  0  0  0
  1  2  2  3
  1  3  1  0
  2  4  1  0
  4  5  1  0
  5  6  2  3
  6  7  1  0
M  END
>  <name>  (33) 
Car Nac Nd0 Car Car Car O_a

>  <indices>  (33) 
[0, 1, 2]

>  <dummy>  (33) 
2

>  <tasks>  (33) 
probe_placing close_aromatic_ring close_aromatic_ring close_aromatic_ring

>  <current_task>  (33) 
close_aromatic_ring

>  <prot_clashes>  (33) 
0

>  <NBS phar>  (33) 
0.22000000000000003

>  <NBS_non-phar>  (33) 
0.8525343736012777

>  <NBS>  (33) 
1.0725343736012778

>  <source_stage>  (33) 
scored

>  <source_iter>  (33) 
3

>  <source_parent_mol>  (33) 
0

>  <source_scenario>  (33) 
1 0 0

>  <source_rank_in_scored_call>  (33) 
1

>  <source_current_task>  (33) 
close_aromatic_ring

>  <scenario>  (33) 
1 0 0

>  <rotatable_bond_torsions>  (33) 
0,1,3,4;1,3,4,5

>  <reason_to_skip>  (33) 
some_atom_counter_exceeded

$$$$

     RDKit          3D

  7  6  0  0  0  0  0  0  0  0999 V2000
  -27.8640   -7.4760  -31.1990 C   0  0  0  0  0  0  0  0  0  0  0  0
  -27.5380   -6.7190  -32.2850 N   0  0  0  0  0  0  0  0  0  0  0  0
  -27.6840   -8.8650  -31.2620 N   0  0  0  0  0  0  0  0  0  0  0  0
  -27.8024   -5.3830  -31.8813 C   0  0  0  0  0  0  0  0  0  0  0  0
  -28.2578   -4.8905  -30.7215 C   0  0  0  0  0  0  0  0  0  0  0  0
  -28.5306   -5.9011  -29.7337 C   0  0  0  0  0  0  0  0  0  0  0  0
  -29.9950   -6.2749  -28.7518 C   0  0  0  0  0  0  0  0  0  0  0  0
  1  2  2  3
  1  3  1  0
  2  4  1  0
  4  5  1  0
  5  6  2  3
  6  7  1  0
M  END
>  <name>  (34) 
Car Nac Nd0 Car Car Car Car

>  <indices>  (34) 
[0, 1, 2]

>  <dummy>  (34) 
2

>  <tasks>  (34) 
probe_placing close_aromatic_ring close_aromatic_ring close_aromatic_ring

>  <current_task>  (34) 
close_aromatic_ring

>  <prot_clashes>  (34) 
0

>  <NBS phar>  (34) 
0.22000000000000003

>  <NBS_non-phar>  (34) 
0.8525343736012777

>  <NBS>  (34) 
1.0725343736012778

>  <source_stage>  (34) 
scored

>  <source_iter>  (34) 
3

>  <source_parent_mol>  (34) 
0

>  <source_scenario>  (34) 
1 0 0

>  <source_rank_in_scored_call>  (34) 
1

>  <source_current_task>  (34) 
close_aromatic_ring

>  <scenario>  (34) 
1 0 0

>  <rotatable_bond_torsions>  (34) 
0,1,3,4;1,3,4,5

>  <reason_to_skip>  (34) 
incorrect arom ring closing

$$$$

     RDKit          3D

  7  6  0  0  0  0  0  0  0  0999 V2000
  -27.8640   -7.4760  -31.1990 C   0  0  0  0  0  0  0  0  0  0  0  0
  -27.5380   -6.7190  -32.2850 N   0  0  0  0  0  0  0  0  0  0  0  0
  -27.6840   -8.8650  -31.2620 N   0  0  0  0  0  0  0  0  0  0  0  0
  -27.8024   -5.3830  -31.8813 C   0  0  0  0  0  0  0  0  0  0  0  0
  -28.2578   -4.8905  -30.7215 C   0  0  0  0  0  0  0  0  0  0  0  0
  -28.5306   -5.9011  -29.7337 C   0  0  0  0  0  0  0  0  0  0  0  0
    0.0000    0.0000    0.0000 S   0  0  0  0  0  0  0  0  0  0  0  0
  1  2  2  3
  1  3  1  0
  2  4  1  0
  4  5  1  0
  5  6  2  3
  6  7  1  0
M  END
>  <name>  (35) 
Car Nac Nd0 Car Car Car Sul

>  <indices>  (35) 
[0, 1, 2]

>  <dummy>  (35) 
2

>  <tasks>  (35) 
probe_placing close_aromatic_ring close_aromatic_ring close_aromatic_ring

>  <current_task>  (35) 
close_aromatic_ring

>  <prot_clashes>  (35) 
0

>  <NBS phar>  (35) 
0.22000000000000003

>  <NBS_non-phar>  (35) 
0.8525343736012777

>  <NBS>  (35) 
1.0725343736012778

>  <source_stage>  (35) 
scored

>  <source_iter>  (35) 
3

>  <source_parent_mol>  (35) 
0

>  <source_scenario>  (35) 
1 0 0

>  <source_rank_in_scored_call>  (35) 
1

>  <source_current_task>  (35) 
close_aromatic_ring

>  <scenario>  (35) 
1 0 0

>  <rotatable_bond_torsions>  (35) 
0,1,3,4;1,3,4,5

>  <reason_to_skip>  (35) 
some_atom_counter_exceeded

$$$$

     RDKit          3D

  7  6  0  0  0  0  0  0  0  0999 V2000
  -27.8640   -7.4760  -31.1990 C   0  0  0  0  0  0  0  0  0  0  0  0
  -27.5380   -6.7190  -32.2850 N   0  0  0  0  0  0  0  0  0  0  0  0
  -27.6840   -8.8650  -31.2620 N   0  0  0  0  0  0  0  0  0  0  0  0
  -27.8024   -5.3830  -31.8813 C   0  0  0  0  0  0  0  0  0  0  0  0
  -28.2578   -4.8905  -30.7215 C   0  0  0  0  0  0  0  0  0  0  0  0
  -28.5306   -5.9011  -29.7337 C   0  0  0  0  0  0  0  0  0  0  0  0
  -27.4871   -5.9538  -28.8027 N   0  0  0  0  0  0  0  0  0  0  0  0
  1  2  2  3
  1  3  1  0
  2  4  1  0
  4  5  1  0
  5  6  2  3
  6  7  1  0
M  END
>  <name>  (36) 
Car Nac Nd0 Car Car Car Nd0

>  <indices>  (36) 
[0, 1, 2]

>  <dummy>  (36) 
2

>  <tasks>  (36) 
probe_placing close_aromatic_ring close_aromatic_ring close_aromatic_ring

>  <current_task>  (36) 
close_aromatic_ring

>  <prot_clashes>  (36) 
0

>  <NBS phar>  (36) 
0.22000000000000003

>  <NBS_non-phar>  (36) 
0.8525343736012777

>  <NBS>  (36) 
1.0725343736012778

>  <source_stage>  (36) 
scored

>  <source_iter>  (36) 
3

>  <source_parent_mol>  (36) 
0

>  <source_scenario>  (36) 
1 0 0

>  <source_rank_in_scored_call>  (36) 
1

>  <source_current_task>  (36) 
close_aromatic_ring

>  <scenario>  (36) 
1 0 0

>  <rotatable_bond_torsions>  (36) 
0,1,3,4;1,3,4,5

>  <reason_to_skip>  (36) 
incorrect arom ring closing

$$$$

     RDKit          3D

  7  6  0  0  0  0  0  0  0  0999 V2000
  -27.8640   -7.4760  -31.1990 C   0  0  0  0  0  0  0  0  0  0  0  0
  -27.5380   -6.7190  -32.2850 N   0  0  0  0  0  0  0  0  0  0  0  0
  -27.6840   -8.8650  -31.2620 N   0  0  0  0  0  0  0  0  0  0  0  0
  -27.8024   -5.3830  -31.8813 C   0  0  0  0  0  0  0  0  0  0  0  0
  -28.2578   -4.8905  -30.7215 C   0  0  0  0  0  0  0  0  0  0  0  0
  -28.5306   -5.9011  -29.7337 C   0  0  0  0  0  0  0  0  0  0  0  0
    0.0000    0.0000    0.0000 S   0  0  0  0  0  0  0  0  0  0  0  0
  1  2  2  3
  1  3  1  0
  2  4  1  0
  4  5  1  0
  5  6  2  3
  6  7  1  0
M  END
>  <name>  (37) 
Car Nac Nd0 Car Car Car Sul

>  <indices>  (37) 
[0, 1, 2]

>  <dummy>  (37) 
2

>  <tasks>  (37) 
probe_placing close_aromatic_ring close_aromatic_ring close_aromatic_ring

>  <current_task>  (37) 
close_aromatic_ring

>  <prot_clashes>  (37) 
0

>  <NBS phar>  (37) 
0.22000000000000003

>  <NBS_non-phar>  (37) 
0.8525343736012777

>  <NBS>  (37) 
1.0725343736012778

>  <source_stage>  (37) 
scored

>  <source_iter>  (37) 
3

>  <source_parent_mol>  (37) 
0

>  <source_scenario>  (37) 
1 0 0

>  <source_rank_in_scored_call>  (37) 
1

>  <source_current_task>  (37) 
close_aromatic_ring

>  <scenario>  (37) 
1 0 0

>  <rotatable_bond_torsions>  (37) 
0,1,3,4;1,3,4,5

>  <reason_to_skip>  (37) 
some_atom_counter_exceeded

$$$$

     RDKit          3D

  7  6  0  0  0  0  0  0  0  0999 V2000
  -27.8640   -7.4760  -31.1990 C   0  0  0  0  0  0  0  0  0  0  0  0
  -27.5380   -6.7190  -32.2850 N   0  0  0  0  0  0  0  0  0  0  0  0
  -27.6840   -8.8650  -31.2620 N   0  0  0  0  0  0  0  0  0  0  0  0
  -27.8024   -5.3830  -31.8813 C   0  0  0  0  0  0  0  0  0  0  0  0
  -28.2578   -4.8905  -30.7215 C   0  0  0  0  0  0  0  0  0  0  0  0
  -28.5306   -5.9011  -29.7337 C   0  0  0  0  0  0  0  0  0  0  0  0
    0.0000    0.0000    0.0000 S   0  0  0  0  0  0  0  0  0  0  0  0
  1  2  2  3
  1  3  1  0
  2  4  1  0
  4  5  1  0
  5  6  2  3
  6  7  1  0
M  END
>  <name>  (38) 
Car Nac Nd0 Car Car Car Sul

>  <indices>  (38) 
[0, 1, 2]

>  <dummy>  (38) 
2

>  <tasks>  (38) 
probe_placing close_aromatic_ring close_aromatic_ring close_aromatic_ring

>  <current_task>  (38) 
close_aromatic_ring

>  <prot_clashes>  (38) 
0

>  <NBS phar>  (38) 
0.22000000000000003

>  <NBS_non-phar>  (38) 
0.8525343736012777

>  <NBS>  (38) 
1.0725343736012778

>  <source_stage>  (38) 
scored

>  <source_iter>  (38) 
3

>  <source_parent_mol>  (38) 
0

>  <source_scenario>  (38) 
1 0 0

>  <source_rank_in_scored_call>  (38) 
1

>  <source_current_task>  (38) 
close_aromatic_ring

>  <scenario>  (38) 
1 0 0

>  <rotatable_bond_torsions>  (38) 
0,1,3,4;1,3,4,5

>  <reason_to_skip>  (38) 
some_atom_counter_exceeded

$$$$

     RDKit          3D

  7  6  0  0  0  0  0  0  0  0999 V2000
  -27.8640   -7.4760  -31.1990 C   0  0  0  0  0  0  0  0  0  0  0  0
  -27.5380   -6.7190  -32.2850 N   0  0  0  0  0  0  0  0  0  0  0  0
  -27.6840   -8.8650  -31.2620 N   0  0  0  0  0  0  0  0  0  0  0  0
  -27.8024   -5.3830  -31.8813 C   0  0  0  0  0  0  0  0  0  0  0  0
  -28.2578   -4.8905  -30.7215 C   0  0  0  0  0  0  0  0  0  0  0  0
  -28.5306   -5.9011  -29.7337 C   0  0  0  0  0  0  0  0  0  0  0  0
    0.0000    0.0000    0.0000 S   0  0  0  0  0  0  0  0  0  0  0  0
  1  2  2  3
  1  3  1  0
  2  4  1  0
  4  5  1  0
  5  6  2  3
  6  7  1  0
M  END
>  <name>  (39) 
Car Nac Nd0 Car Car Car Sul

>  <indices>  (39) 
[0, 1, 2]

>  <dummy>  (39) 
2

>  <tasks>  (39) 
probe_placing close_aromatic_ring close_aromatic_ring close_aromatic_ring

>  <current_task>  (39) 
close_aromatic_ring

>  <prot_clashes>  (39) 
0

>  <NBS phar>  (39) 
0.22000000000000003

>  <NBS_non-phar>  (39) 
0.8525343736012777

>  <NBS>  (39) 
1.0725343736012778

>  <source_stage>  (39) 
scored

>  <source_iter>  (39) 
3

>  <source_parent_mol>  (39) 
0

>  <source_scenario>  (39) 
1 0 0

>  <source_rank_in_scored_call>  (39) 
1

>  <source_current_task>  (39) 
close_aromatic_ring

>  <scenario>  (39) 
1 0 0

>  <rotatable_bond_torsions>  (39) 
0,1,3,4;1,3,4,5

>  <reason_to_skip>  (39) 
some_atom_counter_exceeded

$$$$

     RDKit          3D

  7  6  0  0  0  0  0  0  0  0999 V2000
  -27.8640   -7.4760  -31.1990 C   0  0  0  0  0  0  0  0  0  0  0  0
  -27.5380   -6.7190  -32.2850 N   0  0  0  0  0  0  0  0  0  0  0  0
  -27.6840   -8.8650  -31.2620 N   0  0  0  0  0  0  0  0  0  0  0  0
  -27.8024   -5.3830  -31.8813 C   0  0  0  0  0  0  0  0  0  0  0  0
  -28.2578   -4.8905  -30.7215 C   0  0  0  0  0  0  0  0  0  0  0  0
  -28.5306   -5.9011  -29.7337 C   0  0  0  0  0  0  0  0  0  0  0  0
  -29.8349   -6.5075  -29.5844 C   0  0  0  0  0  0  0  0  0  0  0  0
  1  2  2  3
  1  3  1  0
  2  4  1  0
  4  5  1  0
  5  6  2  3
  6  7  1  0
M  END
>  <name>  (40) 
Car Nac Nd0 Car Car Car Car

>  <indices>  (40) 
[0, 1, 2]

>  <dummy>  (40) 
2

>  <tasks>  (40) 
probe_placing close_aromatic_ring close_aromatic_ring close_aromatic_ring

>  <current_task>  (40) 
close_aromatic_ring

>  <prot_clashes>  (40) 
0

>  <NBS phar>  (40) 
0.22000000000000003

>  <NBS_non-phar>  (40) 
0.8525343736012777

>  <NBS>  (40) 
1.0725343736012778

>  <source_stage>  (40) 
scored

>  <source_iter>  (40) 
3

>  <source_parent_mol>  (40) 
0

>  <source_scenario>  (40) 
1 0 0

>  <source_rank_in_scored_call>  (40) 
1

>  <source_current_task>  (40) 
close_aromatic_ring

>  <scenario>  (40) 
1 0 0

>  <rotatable_bond_torsions>  (40) 
0,1,3,4;1,3,4,5

>  <reason_to_skip>  (40) 
incorrect arom ring closing

$$$$

     RDKit          3D

  7  6  0  0  0  0  0  0  0  0999 V2000
  -27.8640   -7.4760  -31.1990 C   0  0  0  0  0  0  0  0  0  0  0  0
  -27.5380   -6.7190  -32.2850 N   0  0  0  0  0  0  0  0  0  0  0  0
  -27.6840   -8.8650  -31.2620 N   0  0  0  0  0  0  0  0  0  0  0  0
  -27.8024   -5.3830  -31.8813 C   0  0  0  0  0  0  0  0  0  0  0  0
  -28.2578   -4.8905  -30.7215 C   0  0  0  0  0  0  0  0  0  0  0  0
  -28.5306   -5.9011  -29.7337 C   0  0  0  0  0  0  0  0  0  0  0  0
  -29.7360   -6.6785  -29.6490 C   0  0  0  0  0  0  0  0  0  0  0  0
  1  2  2  3
  1  3  1  0
  2  4  1  0
  4  5  1  0
  5  6  2  3
  6  7  1  0
M  END
>  <name>  (41) 
Car Nac Nd0 Car Car Car Car

>  <indices>  (41) 
[0, 1, 2]

>  <dummy>  (41) 
2

>  <tasks>  (41) 
probe_placing close_aromatic_ring close_aromatic_ring close_aromatic_ring

>  <current_task>  (41) 
close_aromatic_ring

>  <prot_clashes>  (41) 
0

>  <NBS phar>  (41) 
0.22000000000000003

>  <NBS_non-phar>  (41) 
0.8525343736012777

>  <NBS>  (41) 
1.0725343736012778

>  <source_stage>  (41) 
scored

>  <source_iter>  (41) 
3

>  <source_parent_mol>  (41) 
0

>  <source_scenario>  (41) 
1 0 0

>  <source_rank_in_scored_call>  (41) 
1

>  <source_current_task>  (41) 
close_aromatic_ring

>  <scenario>  (41) 
1 0 0

>  <rotatable_bond_torsions>  (41) 
0,1,3,4;1,3,4,5

>  <reason_to_skip>  (41) 
incorrect arom ring closing

$$$$

     RDKit          3D

  7  6  0  0  0  0  0  0  0  0999 V2000
  -27.8640   -7.4760  -31.1990 C   0  0  0  0  0  0  0  0  0  0  0  0
  -27.5380   -6.7190  -32.2850 N   0  0  0  0  0  0  0  0  0  0  0  0
  -27.6840   -8.8650  -31.2620 N   0  0  0  0  0  0  0  0  0  0  0  0
  -27.8024   -5.3830  -31.8813 C   0  0  0  0  0  0  0  0  0  0  0  0
  -28.2578   -4.8905  -30.7215 C   0  0  0  0  0  0  0  0  0  0  0  0
  -28.5306   -5.9011  -29.7337 C   0  0  0  0  0  0  0  0  0  0  0  0
  -27.7564   -6.1015  -28.5515 N   0  0  0  0  0  0  0  0  0  0  0  0
  1  2  2  3
  1  3  1  0
  2  4  1  0
  4  5  1  0
  5  6  2  3
  6  7  1  0
M  END
>  <name>  (42) 
Car Nac Nd0 Car Car Car Nd0

>  <indices>  (42) 
[0, 1, 2]

>  <dummy>  (42) 
2

>  <tasks>  (42) 
probe_placing close_aromatic_ring close_aromatic_ring close_aromatic_ring

>  <current_task>  (42) 
close_aromatic_ring

>  <prot_clashes>  (42) 
0

>  <NBS phar>  (42) 
0.22000000000000003

>  <NBS_non-phar>  (42) 
0.8525343736012777

>  <NBS>  (42) 
1.0725343736012778

>  <source_stage>  (42) 
scored

>  <source_iter>  (42) 
3

>  <source_parent_mol>  (42) 
0

>  <source_scenario>  (42) 
1 0 0

>  <source_rank_in_scored_call>  (42) 
1

>  <source_current_task>  (42) 
close_aromatic_ring

>  <scenario>  (42) 
1 0 0

>  <rotatable_bond_torsions>  (42) 
0,1,3,4;1,3,4,5

>  <reason_to_skip>  (42) 
incorrect arom ring closing

$$$$

     RDKit          3D

  7  6  0  0  0  0  0  0  0  0999 V2000
  -27.8640   -7.4760  -31.1990 C   0  0  0  0  0  0  0  0  0  0  0  0
  -27.5380   -6.7190  -32.2850 N   0  0  0  0  0  0  0  0  0  0  0  0
  -27.6840   -8.8650  -31.2620 N   0  0  0  0  0  0  0  0  0  0  0  0
  -27.8024   -5.3830  -31.8813 C   0  0  0  0  0  0  0  0  0  0  0  0
  -28.2578   -4.8905  -30.7215 C   0  0  0  0  0  0  0  0  0  0  0  0
  -28.5306   -5.9011  -29.7337 C   0  0  0  0  0  0  0  0  0  0  0  0
  -27.8673   -6.0451  -28.4655 N   0  0  0  0  0  0  0  0  0  0  0  0
  1  2  2  3
  1  3  1  0
  2  4  1  0
  4  5  1  0
  5  6  2  3
  6  7  1  0
M  END
>  <name>  (43) 
Car Nac Nd0 Car Car Car Nac

>  <indices>  (43) 
[0, 1, 2]

>  <dummy>  (43) 
2

>  <tasks>  (43) 
probe_placing close_aromatic_ring close_aromatic_ring close_aromatic_ring

>  <current_task>  (43) 
close_aromatic_ring

>  <prot_clashes>  (43) 
0

>  <NBS phar>  (43) 
0.22000000000000003

>  <NBS_non-phar>  (43) 
0.8525343736012777

>  <NBS>  (43) 
1.0725343736012778

>  <source_stage>  (43) 
scored

>  <source_iter>  (43) 
3

>  <source_parent_mol>  (43) 
0

>  <source_scenario>  (43) 
1 0 0

>  <source_rank_in_scored_call>  (43) 
1

>  <source_current_task>  (43) 
close_aromatic_ring

>  <scenario>  (43) 
1 0 0

>  <rotatable_bond_torsions>  (43) 
0,1,3,4;1,3,4,5

>  <reason_to_skip>  (43) 
incorrect arom ring closing

$$$$

     RDKit          3D

  7  6  0  0  0  0  0  0  0  0999 V2000
  -27.8640   -7.4760  -31.1990 C   0  0  0  0  0  0  0  0  0  0  0  0
  -27.5380   -6.7190  -32.2850 N   0  0  0  0  0  0  0  0  0  0  0  0
  -27.6840   -8.8650  -31.2620 N   0  0  0  0  0  0  0  0  0  0  0  0
  -27.8024   -5.3830  -31.8813 C   0  0  0  0  0  0  0  0  0  0  0  0
  -28.2578   -4.8905  -30.7215 C   0  0  0  0  0  0  0  0  0  0  0  0
  -28.5306   -5.9011  -29.7337 C   0  0  0  0  0  0  0  0  0  0  0  0
    0.0000    0.0000    0.0000 S   0  0  0  0  0  0  0  0  0  0  0  0
  1  2  2  3
  1  3  1  0
  2  4  1  0
  4  5  1  0
  5  6  2  3
  6  7  1  0
M  END
>  <name>  (44) 
Car Nac Nd0 Car Car Car Sul

>  <indices>  (44) 
[0, 1, 2]

>  <dummy>  (44) 
2

>  <tasks>  (44) 
probe_placing close_aromatic_ring close_aromatic_ring close_aromatic_ring

>  <current_task>  (44) 
close_aromatic_ring

>  <prot_clashes>  (44) 
0

>  <NBS phar>  (44) 
0.22000000000000003

>  <NBS_non-phar>  (44) 
0.8525343736012777

>  <NBS>  (44) 
1.0725343736012778

>  <source_stage>  (44) 
scored

>  <source_iter>  (44) 
3

>  <source_parent_mol>  (44) 
0

>  <source_scenario>  (44) 
1 0 0

>  <source_rank_in_scored_call>  (44) 
1

>  <source_current_task>  (44) 
close_aromatic_ring

>  <scenario>  (44) 
1 0 0

>  <rotatable_bond_torsions>  (44) 
0,1,3,4;1,3,4,5

>  <reason_to_skip>  (44) 
some_atom_counter_exceeded

$$$$

     RDKit          3D

  7  6  0  0  0  0  0  0  0  0999 V2000
  -27.8640   -7.4760  -31.1990 C   0  0  0  0  0  0  0  0  0  0  0  0
  -27.5380   -6.7190  -32.2850 N   0  0  0  0  0  0  0  0  0  0  0  0
  -27.6840   -8.8650  -31.2620 N   0  0  0  0  0  0  0  0  0  0  0  0
  -27.8024   -5.3830  -31.8813 C   0  0  0  0  0  0  0  0  0  0  0  0
  -28.2578   -4.8905  -30.7215 C   0  0  0  0  0  0  0  0  0  0  0  0
  -28.5306   -5.9011  -29.7337 C   0  0  0  0  0  0  0  0  0  0  0  0
    0.0000    0.0000    0.0000 S   0  0  0  0  0  0  0  0  0  0  0  0
  1  2  2  3
  1  3  1  0
  2  4  1  0
  4  5  1  0
  5  6  2  3
  6  7  1  0
M  END
>  <name>  (45) 
Car Nac Nd0 Car Car Car Sul

>  <indices>  (45) 
[0, 1, 2]

>  <dummy>  (45) 
2

>  <tasks>  (45) 
probe_placing close_aromatic_ring close_aromatic_ring close_aromatic_ring

>  <current_task>  (45) 
close_aromatic_ring

>  <prot_clashes>  (45) 
0

>  <NBS phar>  (45) 
0.22000000000000003

>  <NBS_non-phar>  (45) 
0.8525343736012777

>  <NBS>  (45) 
1.0725343736012778

>  <source_stage>  (45) 
scored

>  <source_iter>  (45) 
3

>  <source_parent_mol>  (45) 
0

>  <source_scenario>  (45) 
1 0 0

>  <source_rank_in_scored_call>  (45) 
1

>  <source_current_task>  (45) 
close_aromatic_ring

>  <scenario>  (45) 
1 0 0

>  <rotatable_bond_torsions>  (45) 
0,1,3,4;1,3,4,5

>  <reason_to_skip>  (45) 
some_atom_counter_exceeded

$$$$

     RDKit          3D

  7  6  0  0  0  0  0  0  0  0999 V2000
  -27.8640   -7.4760  -31.1990 C   0  0  0  0  0  0  0  0  0  0  0  0
  -27.5380   -6.7190  -32.2850 N   0  0  0  0  0  0  0  0  0  0  0  0
  -27.6840   -8.8650  -31.2620 N   0  0  0  0  0  0  0  0  0  0  0  0
  -27.8024   -5.3830  -31.8813 C   0  0  0  0  0  0  0  0  0  0  0  0
  -28.2578   -4.8905  -30.7215 C   0  0  0  0  0  0  0  0  0  0  0  0
  -28.5306   -5.9011  -29.7337 C   0  0  0  0  0  0  0  0  0  0  0  0
  -29.7699   -6.0699  -29.3094 N   0  0  0  0  0  0  0  0  0  0  0  0
  1  2  2  3
  1  3  1  0
  2  4  1  0
  4  5  1  0
  5  6  2  3
  6  7  1  0
M  END
>  <name>  (46) 
Car Nac Nd0 Car Car Car Nd0

>  <indices>  (46) 
[0, 1, 2]

>  <dummy>  (46) 
2

>  <tasks>  (46) 
probe_placing close_aromatic_ring close_aromatic_ring close_aromatic_ring

>  <current_task>  (46) 
close_aromatic_ring

>  <prot_clashes>  (46) 
0

>  <NBS phar>  (46) 
0.22000000000000003

>  <NBS_non-phar>  (46) 
0.8525343736012777

>  <NBS>  (46) 
1.0725343736012778

>  <source_stage>  (46) 
scored

>  <source_iter>  (46) 
3

>  <source_parent_mol>  (46) 
0

>  <source_scenario>  (46) 
1 0 0

>  <source_rank_in_scored_call>  (46) 
1

>  <source_current_task>  (46) 
close_aromatic_ring

>  <scenario>  (46) 
1 0 0

>  <rotatable_bond_torsions>  (46) 
0,1,3,4;1,3,4,5

>  <reason_to_skip>  (46) 
incorrect arom ring closing

$$$$

     RDKit          3D

  7  6  0  0  0  0  0  0  0  0999 V2000
  -27.8640   -7.4760  -31.1990 C   0  0  0  0  0  0  0  0  0  0  0  0
  -27.5380   -6.7190  -32.2850 N   0  0  0  0  0  0  0  0  0  0  0  0
  -27.6840   -8.8650  -31.2620 N   0  0  0  0  0  0  0  0  0  0  0  0
  -27.8024   -5.3830  -31.8813 C   0  0  0  0  0  0  0  0  0  0  0  0
  -28.2578   -4.8905  -30.7215 C   0  0  0  0  0  0  0  0  0  0  0  0
  -28.5306   -5.9011  -29.7337 C   0  0  0  0  0  0  0  0  0  0  0  0
    0.0000    0.0000    0.0000 O   0  0  0  0  0  0  0  0  0  0  0  0
  1  2  2  3
  1  3  1  0
  2  4  1  0
  4  5  1  0
  5  6  2  3
  6  7  1  0
M  END
>  <name>  (47) 
Car Nac Nd0 Car Car Car O_a

>  <indices>  (47) 
[0, 1, 2]

>  <dummy>  (47) 
2

>  <tasks>  (47) 
probe_placing close_aromatic_ring close_aromatic_ring close_aromatic_ring

>  <current_task>  (47) 
close_aromatic_ring

>  <prot_clashes>  (47) 
0

>  <NBS phar>  (47) 
0.22000000000000003

>  <NBS_non-phar>  (47) 
0.8525343736012777

>  <NBS>  (47) 
1.0725343736012778

>  <source_stage>  (47) 
scored

>  <source_iter>  (47) 
3

>  <source_parent_mol>  (47) 
0

>  <source_scenario>  (47) 
1 0 0

>  <source_rank_in_scored_call>  (47) 
1

>  <source_current_task>  (47) 
close_aromatic_ring

>  <scenario>  (47) 
1 0 0

>  <rotatable_bond_torsions>  (47) 
0,1,3,4;1,3,4,5

>  <reason_to_skip>  (47) 
some_atom_counter_exceeded

$$$$

     RDKit          3D

  7  6  0  0  0  0  0  0  0  0999 V2000
  -27.8640   -7.4760  -31.1990 C   0  0  0  0  0  0  0  0  0  0  0  0
  -27.5380   -6.7190  -32.2850 N   0  0  0  0  0  0  0  0  0  0  0  0
  -27.6840   -8.8650  -31.2620 N   0  0  0  0  0  0  0  0  0  0  0  0
  -27.8024   -5.3830  -31.8813 C   0  0  0  0  0  0  0  0  0  0  0  0
  -28.2578   -4.8905  -30.7215 C   0  0  0  0  0  0  0  0  0  0  0  0
  -28.5306   -5.9011  -29.7337 C   0  0  0  0  0  0  0  0  0  0  0  0
    0.0000    0.0000    0.0000 O   0  0  0  0  0  0  0  0  0  0  0  0
  1  2  2  3
  1  3  1  0
  2  4  1  0
  4  5  1  0
  5  6  2  3
  6  7  1  0
M  END
>  <name>  (48) 
Car Nac Nd0 Car Car Car O_a

>  <indices>  (48) 
[0, 1, 2]

>  <dummy>  (48) 
2

>  <tasks>  (48) 
probe_placing close_aromatic_ring close_aromatic_ring close_aromatic_ring

>  <current_task>  (48) 
close_aromatic_ring

>  <prot_clashes>  (48) 
0

>  <NBS phar>  (48) 
0.22000000000000003

>  <NBS_non-phar>  (48) 
0.8525343736012777

>  <NBS>  (48) 
1.0725343736012778

>  <source_stage>  (48) 
scored

>  <source_iter>  (48) 
3

>  <source_parent_mol>  (48) 
0

>  <source_scenario>  (48) 
1 0 0

>  <source_rank_in_scored_call>  (48) 
1

>  <source_current_task>  (48) 
close_aromatic_ring

>  <scenario>  (48) 
1 0 0

>  <rotatable_bond_torsions>  (48) 
0,1,3,4;1,3,4,5

>  <reason_to_skip>  (48) 
some_atom_counter_exceeded

$$$$

     RDKit          3D

  7  6  0  0  0  0  0  0  0  0999 V2000
  -27.8640   -7.4760  -31.1990 C   0  0  0  0  0  0  0  0  0  0  0  0
  -27.5380   -6.7190  -32.2850 N   0  0  0  0  0  0  0  0  0  0  0  0
  -27.6840   -8.8650  -31.2620 N   0  0  0  0  0  0  0  0  0  0  0  0
  -27.8024   -5.3830  -31.8813 C   0  0  0  0  0  0  0  0  0  0  0  0
  -28.2578   -4.8905  -30.7215 C   0  0  0  0  0  0  0  0  0  0  0  0
  -28.5306   -5.9011  -29.7337 C   0  0  0  0  0  0  0  0  0  0  0  0
  -29.9521   -6.1453  -29.2816 C   0  0  0  0  0  0  0  0  0  0  0  0
  1  2  2  3
  1  3  1  0
  2  4  1  0
  4  5  1  0
  5  6  2  3
  6  7  1  0
M  END
>  <name>  (49) 
Car Nac Nd0 Car Car Car Car

>  <indices>  (49) 
[0, 1, 2]

>  <dummy>  (49) 
2

>  <tasks>  (49) 
probe_placing close_aromatic_ring close_aromatic_ring close_aromatic_ring

>  <current_task>  (49) 
close_aromatic_ring

>  <prot_clashes>  (49) 
0

>  <NBS phar>  (49) 
0.22000000000000003

>  <NBS_non-phar>  (49) 
0.8525343736012777

>  <NBS>  (49) 
1.0725343736012778

>  <source_stage>  (49) 
scored

>  <source_iter>  (49) 
3

>  <source_parent_mol>  (49) 
0

>  <source_scenario>  (49) 
1 0 0

>  <source_rank_in_scored_call>  (49) 
1

>  <source_current_task>  (49) 
close_aromatic_ring

>  <scenario>  (49) 
1 0 0

>  <rotatable_bond_torsions>  (49) 
0,1,3,4;1,3,4,5

>  <reason_to_skip>  (49) 
incorrect arom ring closing

$$$$

     RDKit          3D

  7  6  0  0  0  0  0  0  0  0999 V2000
  -27.8640   -7.4760  -31.1990 C   0  0  0  0  0  0  0  0  0  0  0  0
  -27.5380   -6.7190  -32.2850 N   0  0  0  0  0  0  0  0  0  0  0  0
  -27.6840   -8.8650  -31.2620 N   0  0  0  0  0  0  0  0  0  0  0  0
  -27.8024   -5.3830  -31.8813 C   0  0  0  0  0  0  0  0  0  0  0  0
  -28.2578   -4.8905  -30.7215 C   0  0  0  0  0  0  0  0  0  0  0  0
  -28.5306   -5.9011  -29.7337 C   0  0  0  0  0  0  0  0  0  0  0  0
    0.0000    0.0000    0.0000 S   0  0  0  0  0  0  0  0  0  0  0  0
  1  2  2  3
  1  3  1  0
  2  4  1  0
  4  5  1  0
  5  6  2  3
  6  7  1  0
M  END
>  <name>  (50) 
Car Nac Nd0 Car Car Car Sul

>  <indices>  (50) 
[0, 1, 2]

>  <dummy>  (50) 
2

>  <tasks>  (50) 
probe_placing close_aromatic_ring close_aromatic_ring close_aromatic_ring

>  <current_task>  (50) 
close_aromatic_ring

>  <prot_clashes>  (50) 
0

>  <NBS phar>  (50) 
0.22000000000000003

>  <NBS_non-phar>  (50) 
0.8525343736012777

>  <NBS>  (50) 
1.0725343736012778

>  <source_stage>  (50) 
scored

>  <source_iter>  (50) 
3

>  <source_parent_mol>  (50) 
0

>  <source_scenario>  (50) 
1 0 0

>  <source_rank_in_scored_call>  (50) 
1

>  <source_current_task>  (50) 
close_aromatic_ring

>  <scenario>  (50) 
1 0 0

>  <rotatable_bond_torsions>  (50) 
0,1,3,4;1,3,4,5

>  <reason_to_skip>  (50) 
some_atom_counter_exceeded

$$$$

     RDKit          3D

  7  6  0  0  0  0  0  0  0  0999 V2000
  -27.8640   -7.4760  -31.1990 C   0  0  0  0  0  0  0  0  0  0  0  0
  -27.5380   -6.7190  -32.2850 N   0  0  0  0  0  0  0  0  0  0  0  0
  -27.6840   -8.8650  -31.2620 N   0  0  0  0  0  0  0  0  0  0  0  0
  -27.8024   -5.3830  -31.8813 C   0  0  0  0  0  0  0  0  0  0  0  0
  -28.2578   -4.8905  -30.7215 C   0  0  0  0  0  0  0  0  0  0  0  0
  -28.5306   -5.9011  -29.7337 C   0  0  0  0  0  0  0  0  0  0  0  0
  -27.8057   -5.5798  -28.4131 C   0  0  0  0  0  0  0  0  0  0  0  0
  1  2  2  3
  1  3  1  0
  2  4  1  0
  4  5  1  0
  5  6  2  3
  6  7  1  0
M  END
>  <name>  (51) 
Car Nac Nd0 Car Car Car Car

>  <indices>  (51) 
[0, 1, 2]

>  <dummy>  (51) 
2

>  <tasks>  (51) 
probe_placing close_aromatic_ring close_aromatic_ring close_aromatic_ring

>  <current_task>  (51) 
close_aromatic_ring

>  <prot_clashes>  (51) 
0

>  <NBS phar>  (51) 
0.22000000000000003

>  <NBS_non-phar>  (51) 
0.8525343736012777

>  <NBS>  (51) 
1.0725343736012778

>  <source_stage>  (51) 
scored

>  <source_iter>  (51) 
3

>  <source_parent_mol>  (51) 
0

>  <source_scenario>  (51) 
1 0 0

>  <source_rank_in_scored_call>  (51) 
1

>  <source_current_task>  (51) 
close_aromatic_ring

>  <scenario>  (51) 
1 0 0

>  <rotatable_bond_torsions>  (51) 
0,1,3,4;1,3,4,5

>  <reason_to_skip>  (51) 
incorrect arom ring closing

$$$$

     RDKit          3D

  7  6  0  0  0  0  0  0  0  0999 V2000
  -27.8640   -7.4760  -31.1990 C   0  0  0  0  0  0  0  0  0  0  0  0
  -27.5380   -6.7190  -32.2850 N   0  0  0  0  0  0  0  0  0  0  0  0
  -27.6840   -8.8650  -31.2620 N   0  0  0  0  0  0  0  0  0  0  0  0
  -27.8024   -5.3830  -31.8813 C   0  0  0  0  0  0  0  0  0  0  0  0
  -28.2578   -4.8905  -30.7215 C   0  0  0  0  0  0  0  0  0  0  0  0
  -28.5306   -5.9011  -29.7337 C   0  0  0  0  0  0  0  0  0  0  0  0
    0.0000    0.0000    0.0000 S   0  0  0  0  0  0  0  0  0  0  0  0
  1  2  2  3
  1  3  1  0
  2  4  1  0
  4  5  1  0
  5  6  2  3
  6  7  1  0
M  END
>  <name>  (52) 
Car Nac Nd0 Car Car Car Sul

>  <indices>  (52) 
[0, 1, 2]

>  <dummy>  (52) 
2

>  <tasks>  (52) 
probe_placing close_aromatic_ring close_aromatic_ring close_aromatic_ring

>  <current_task>  (52) 
close_aromatic_ring

>  <prot_clashes>  (52) 
0

>  <NBS phar>  (52) 
0.22000000000000003

>  <NBS_non-phar>  (52) 
0.8525343736012777

>  <NBS>  (52) 
1.0725343736012778

>  <source_stage>  (52) 
scored

>  <source_iter>  (52) 
3

>  <source_parent_mol>  (52) 
0

>  <source_scenario>  (52) 
1 0 0

>  <source_rank_in_scored_call>  (52) 
1

>  <source_current_task>  (52) 
close_aromatic_ring

>  <scenario>  (52) 
1 0 0

>  <rotatable_bond_torsions>  (52) 
0,1,3,4;1,3,4,5

>  <reason_to_skip>  (52) 
some_atom_counter_exceeded

$$$$

     RDKit          3D

  7  6  0  0  0  0  0  0  0  0999 V2000
  -27.8640   -7.4760  -31.1990 C   0  0  0  0  0  0  0  0  0  0  0  0
  -27.5380   -6.7190  -32.2850 N   0  0  0  0  0  0  0  0  0  0  0  0
  -27.6840   -8.8650  -31.2620 N   0  0  0  0  0  0  0  0  0  0  0  0
  -27.8024   -5.3830  -31.8813 C   0  0  0  0  0  0  0  0  0  0  0  0
  -28.2578   -4.8905  -30.7215 C   0  0  0  0  0  0  0  0  0  0  0  0
  -28.5306   -5.9011  -29.7337 C   0  0  0  0  0  0  0  0  0  0  0  0
    0.0000    0.0000    0.0000 O   0  0  0  0  0  0  0  0  0  0  0  0
  1  2  2  3
  1  3  1  0
  2  4  1  0
  4  5  1  0
  5  6  2  3
  6  7  1  0
M  END
>  <name>  (53) 
Car Nac Nd0 Car Car Car O_a

>  <indices>  (53) 
[0, 1, 2]

>  <dummy>  (53) 
2

>  <tasks>  (53) 
probe_placing close_aromatic_ring close_aromatic_ring close_aromatic_ring

>  <current_task>  (53) 
close_aromatic_ring

>  <prot_clashes>  (53) 
0

>  <NBS phar>  (53) 
0.22000000000000003

>  <NBS_non-phar>  (53) 
0.8525343736012777

>  <NBS>  (53) 
1.0725343736012778

>  <source_stage>  (53) 
scored

>  <source_iter>  (53) 
3

>  <source_parent_mol>  (53) 
0

>  <source_scenario>  (53) 
1 0 0

>  <source_rank_in_scored_call>  (53) 
1

>  <source_current_task>  (53) 
close_aromatic_ring

>  <scenario>  (53) 
1 0 0

>  <rotatable_bond_torsions>  (53) 
0,1,3,4;1,3,4,5

>  <reason_to_skip>  (53) 
some_atom_counter_exceeded

$$$$

     RDKit          3D

  7  6  0  0  0  0  0  0  0  0999 V2000
  -27.8640   -7.4760  -31.1990 C   0  0  0  0  0  0  0  0  0  0  0  0
  -27.5380   -6.7190  -32.2850 N   0  0  0  0  0  0  0  0  0  0  0  0
  -27.6840   -8.8650  -31.2620 N   0  0  0  0  0  0  0  0  0  0  0  0
  -27.8024   -5.3830  -31.8813 C   0  0  0  0  0  0  0  0  0  0  0  0
  -28.2578   -4.8905  -30.7215 C   0  0  0  0  0  0  0  0  0  0  0  0
  -28.5306   -5.9011  -29.7337 C   0  0  0  0  0  0  0  0  0  0  0  0
  -29.7515   -6.0618  -29.1809 N   0  0  0  0  0  0  0  0  0  0  0  0
  1  2  2  3
  1  3  1  0
  2  4  1  0
  4  5  1  0
  5  6  2  3
  6  7  1  0
M  END
>  <name>  (54) 
Car Nac Nd0 Car Car Car Nd0

>  <indices>  (54) 
[0, 1, 2]

>  <dummy>  (54) 
2

>  <tasks>  (54) 
probe_placing close_aromatic_ring close_aromatic_ring close_aromatic_ring

>  <current_task>  (54) 
close_aromatic_ring

>  <prot_clashes>  (54) 
0

>  <NBS phar>  (54) 
0.22000000000000003

>  <NBS_non-phar>  (54) 
0.8525343736012777

>  <NBS>  (54) 
1.0725343736012778

>  <source_stage>  (54) 
scored

>  <source_iter>  (54) 
3

>  <source_parent_mol>  (54) 
0

>  <source_scenario>  (54) 
1 0 0

>  <source_rank_in_scored_call>  (54) 
1

>  <source_current_task>  (54) 
close_aromatic_ring

>  <scenario>  (54) 
1 0 0

>  <rotatable_bond_torsions>  (54) 
0,1,3,4;1,3,4,5

>  <reason_to_skip>  (54) 
incorrect arom ring closing

$$$$

     RDKit          3D

  7  6  0  0  0  0  0  0  0  0999 V2000
  -27.8640   -7.4760  -31.1990 C   0  0  0  0  0  0  0  0  0  0  0  0
  -27.5380   -6.7190  -32.2850 N   0  0  0  0  0  0  0  0  0  0  0  0
  -27.6840   -8.8650  -31.2620 N   0  0  0  0  0  0  0  0  0  0  0  0
  -27.8024   -5.3830  -31.8813 C   0  0  0  0  0  0  0  0  0  0  0  0
  -28.2578   -4.8905  -30.7215 C   0  0  0  0  0  0  0  0  0  0  0  0
  -28.5306   -5.9011  -29.7337 C   0  0  0  0  0  0  0  0  0  0  0  0
    0.0000    0.0000    0.0000 S   0  0  0  0  0  0  0  0  0  0  0  0
  1  2  2  3
  1  3  1  0
  2  4  1  0
  4  5  1  0
  5  6  2  3
  6  7  1  0
M  END
>  <name>  (55) 
Car Nac Nd0 Car Car Car Sul

>  <indices>  (55) 
[0, 1, 2]

>  <dummy>  (55) 
2

>  <tasks>  (55) 
probe_placing close_aromatic_ring close_aromatic_ring close_aromatic_ring

>  <current_task>  (55) 
close_aromatic_ring

>  <prot_clashes>  (55) 
0

>  <NBS phar>  (55) 
0.22000000000000003

>  <NBS_non-phar>  (55) 
0.8525343736012777

>  <NBS>  (55) 
1.0725343736012778

>  <source_stage>  (55) 
scored

>  <source_iter>  (55) 
3

>  <source_parent_mol>  (55) 
0

>  <source_scenario>  (55) 
1 0 0

>  <source_rank_in_scored_call>  (55) 
1

>  <source_current_task>  (55) 
close_aromatic_ring

>  <scenario>  (55) 
1 0 0

>  <rotatable_bond_torsions>  (55) 
0,1,3,4;1,3,4,5

>  <reason_to_skip>  (55) 
some_atom_counter_exceeded

$$$$

     RDKit          3D

  7  6  0  0  0  0  0  0  0  0999 V2000
  -27.8640   -7.4760  -31.1990 C   0  0  0  0  0  0  0  0  0  0  0  0
  -27.5380   -6.7190  -32.2850 N   0  0  0  0  0  0  0  0  0  0  0  0
  -27.6840   -8.8650  -31.2620 N   0  0  0  0  0  0  0  0  0  0  0  0
  -27.8024   -5.3830  -31.8813 C   0  0  0  0  0  0  0  0  0  0  0  0
  -28.2578   -4.8905  -30.7215 C   0  0  0  0  0  0  0  0  0  0  0  0
  -28.5306   -5.9011  -29.7337 C   0  0  0  0  0  0  0  0  0  0  0  0
  -30.0463   -6.1847  -29.6808 N   0  0  0  0  0  0  0  0  0  0  0  0
  1  2  2  3
  1  3  1  0
  2  4  1  0
  4  5  1  0
  5  6  2  3
  6  7  1  0
M  END
>  <name>  (56) 
Car Nac Nd0 Car Car Car Nd0

>  <indices>  (56) 
[0, 1, 2]

>  <dummy>  (56) 
2

>  <tasks>  (56) 
probe_placing close_aromatic_ring close_aromatic_ring close_aromatic_ring

>  <current_task>  (56) 
close_aromatic_ring

>  <prot_clashes>  (56) 
0

>  <NBS phar>  (56) 
0.22000000000000003

>  <NBS_non-phar>  (56) 
0.8525343736012777

>  <NBS>  (56) 
1.0725343736012778

>  <source_stage>  (56) 
scored

>  <source_iter>  (56) 
3

>  <source_parent_mol>  (56) 
0

>  <source_scenario>  (56) 
1 0 0

>  <source_rank_in_scored_call>  (56) 
1

>  <source_current_task>  (56) 
close_aromatic_ring

>  <scenario>  (56) 
1 0 0

>  <rotatable_bond_torsions>  (56) 
0,1,3,4;1,3,4,5

>  <reason_to_skip>  (56) 
incorrect arom ring closing

$$$$

     RDKit          3D

  7  6  0  0  0  0  0  0  0  0999 V2000
  -27.8640   -7.4760  -31.1990 C   0  0  0  0  0  0  0  0  0  0  0  0
  -27.5380   -6.7190  -32.2850 N   0  0  0  0  0  0  0  0  0  0  0  0
  -27.6840   -8.8650  -31.2620 N   0  0  0  0  0  0  0  0  0  0  0  0
  -27.8024   -5.3830  -31.8813 C   0  0  0  0  0  0  0  0  0  0  0  0
  -28.2578   -4.8905  -30.7215 C   0  0  0  0  0  0  0  0  0  0  0  0
  -28.5306   -5.9011  -29.7337 C   0  0  0  0  0  0  0  0  0  0  0  0
    0.0000    0.0000    0.0000 O   0  0  0  0  0  0  0  0  0  0  0  0
  1  2  2  3
  1  3  1  0
  2  4  1  0
  4  5  1  0
  5  6  2  3
  6  7  1  0
M  END
>  <name>  (57) 
Car Nac Nd0 Car Car Car O_a

>  <indices>  (57) 
[0, 1, 2]

>  <dummy>  (57) 
2

>  <tasks>  (57) 
probe_placing close_aromatic_ring close_aromatic_ring close_aromatic_ring

>  <current_task>  (57) 
close_aromatic_ring

>  <prot_clashes>  (57) 
0

>  <NBS phar>  (57) 
0.22000000000000003

>  <NBS_non-phar>  (57) 
0.8525343736012777

>  <NBS>  (57) 
1.0725343736012778

>  <source_stage>  (57) 
scored

>  <source_iter>  (57) 
3

>  <source_parent_mol>  (57) 
0

>  <source_scenario>  (57) 
1 0 0

>  <source_rank_in_scored_call>  (57) 
1

>  <source_current_task>  (57) 
close_aromatic_ring

>  <scenario>  (57) 
1 0 0

>  <rotatable_bond_torsions>  (57) 
0,1,3,4;1,3,4,5

>  <reason_to_skip>  (57) 
some_atom_counter_exceeded

$$$$

     RDKit          3D

  7  6  0  0  0  0  0  0  0  0999 V2000
  -27.8640   -7.4760  -31.1990 C   0  0  0  0  0  0  0  0  0  0  0  0
  -27.5380   -6.7190  -32.2850 N   0  0  0  0  0  0  0  0  0  0  0  0
  -27.6840   -8.8650  -31.2620 N   0  0  0  0  0  0  0  0  0  0  0  0
  -27.8024   -5.3830  -31.8813 C   0  0  0  0  0  0  0  0  0  0  0  0
  -28.2578   -4.8905  -30.7215 C   0  0  0  0  0  0  0  0  0  0  0  0
  -28.5306   -5.9011  -29.7337 C   0  0  0  0  0  0  0  0  0  0  0  0
    0.0000    0.0000    0.0000 O   0  0  0  0  0  0  0  0  0  0  0  0
  1  2  2  3
  1  3  1  0
  2  4  1  0
  4  5  1  0
  5  6  2  3
  6  7  1  0
M  END
>  <name>  (58) 
Car Nac Nd0 Car Car Car O_a

>  <indices>  (58) 
[0, 1, 2]

>  <dummy>  (58) 
2

>  <tasks>  (58) 
probe_placing close_aromatic_ring close_aromatic_ring close_aromatic_ring

>  <current_task>  (58) 
close_aromatic_ring

>  <prot_clashes>  (58) 
0

>  <NBS phar>  (58) 
0.22000000000000003

>  <NBS_non-phar>  (58) 
0.8525343736012777

>  <NBS>  (58) 
1.0725343736012778

>  <source_stage>  (58) 
scored

>  <source_iter>  (58) 
3

>  <source_parent_mol>  (58) 
0

>  <source_scenario>  (58) 
1 0 0

>  <source_rank_in_scored_call>  (58) 
1

>  <source_current_task>  (58) 
close_aromatic_ring

>  <scenario>  (58) 
1 0 0

>  <rotatable_bond_torsions>  (58) 
0,1,3,4;1,3,4,5

>  <reason_to_skip>  (58) 
some_atom_counter_exceeded

$$$$

     RDKit          3D

  7  6  0  0  0  0  0  0  0  0999 V2000
  -27.8640   -7.4760  -31.1990 C   0  0  0  0  0  0  0  0  0  0  0  0
  -27.5380   -6.7190  -32.2850 N   0  0  0  0  0  0  0  0  0  0  0  0
  -27.6840   -8.8650  -31.2620 N   0  0  0  0  0  0  0  0  0  0  0  0
  -27.8024   -5.3830  -31.8813 C   0  0  0  0  0  0  0  0  0  0  0  0
  -28.2578   -4.8905  -30.7215 C   0  0  0  0  0  0  0  0  0  0  0  0
  -28.5614   -5.7200  -29.6646 N   0  0  0  0  0  0  0  0  0  0  0  0
    0.0000    0.0000    0.0000 N   0  0  0  0  0  0  0  0  0  0  0  0
  1  2  2  3
  1  3  1  0
  2  4  1  0
  4  5  1  0
  5  6  1  0
  6  7  1  0
M  END
>  <name>  (1) 
Car Nac Nd0 Car Car Nd0 Nd0

>  <indices>  (1) 
[0, 1, 2]

>  <dummy>  (1) 
2

>  <tasks>  (1) 
probe_placing close_aromatic_ring close_aromatic_ring close_aromatic_ring

>  <current_task>  (1) 
close_aromatic_ring

>  <prot_clashes>  (1) 
1

>  <NBS phar>  (1) 
0.2

>  <NBS_non-phar>  (1) 
0.7492329279581705

>  <NBS>  (1) 
0.9492329279581706

>  <source_stage>  (1) 
scored

>  <source_iter>  (1) 
3

>  <source_parent_mol>  (1) 
0

>  <source_scenario>  (1) 
1 0 0

>  <source_rank_in_scored_call>  (1) 
3

>  <source_current_task>  (1) 
close_aromatic_ring

>  <scenario>  (1) 
1 0 0

>  <rotatable_bond_torsions>  (1) 
0,1,3,4;1,3,4,5

>  <reason_to_skip>  (1) 
some_atom_counter_exceeded

$$$$

     RDKit          3D

  7  6  0  0  0  0  0  0  0  0999 V2000
  -27.8640   -7.4760  -31.1990 C   0  0  0  0  0  0  0  0  0  0  0  0
  -27.5380   -6.7190  -32.2850 N   0  0  0  0  0  0  0  0  0  0  0  0
  -27.6840   -8.8650  -31.2620 N   0  0  0  0  0  0  0  0  0  0  0  0
  -27.8024   -5.3830  -31.8813 C   0  0  0  0  0  0  0  0  0  0  0  0
  -28.2578   -4.8905  -30.7215 C   0  0  0  0  0  0  0  0  0  0  0  0
  -28.5614   -5.7200  -29.6646 N   0  0  0  0  0  0  0  0  0  0  0  0
    0.0000    0.0000    0.0000 N   0  0  0  0  0  0  0  0  0  0  0  0
  1  2  2  3
  1  3  1  0
  2  4  1  0
  4  5  1  0
  5  6  1  0
  6  7  1  0
M  END
>  <name>  (2) 
Car Nac Nd0 Car Car Nd0 Nd0

>  <indices>  (2) 
[0, 1, 2]

>  <dummy>  (2) 
2

>  <tasks>  (2) 
probe_placing close_aromatic_ring close_aromatic_ring close_aromatic_ring

>  <current_task>  (2) 
close_aromatic_ring

>  <prot_clashes>  (2) 
1

>  <NBS phar>  (2) 
0.2

>  <NBS_non-phar>  (2) 
0.7492329279581705

>  <NBS>  (2) 
0.9492329279581706

>  <source_stage>  (2) 
scored

>  <source_iter>  (2) 
3

>  <source_parent_mol>  (2) 
0

>  <source_scenario>  (2) 
1 0 0

>  <source_rank_in_scored_call>  (2) 
3

>  <source_current_task>  (2) 
close_aromatic_ring

>  <scenario>  (2) 
1 0 0

>  <rotatable_bond_torsions>  (2) 
0,1,3,4;1,3,4,5

>  <reason_to_skip>  (2) 
some_atom_counter_exceeded

$$$$

     RDKit          3D

  7  7  0  0  0  0  0  0  0  0999 V2000
  -27.6851   -7.5301  -31.0915 C   0  0  0  0  0  0  0  0  0  0  0  0
  -27.4337   -6.6380  -32.0430 N   0  0  0  0  0  0  0  0  0  0  0  0
  -27.6840   -8.8650  -31.2620 N   0  0  0  0  0  0  0  0  0  0  0  0
  -28.2578   -5.4859  -32.0051 C   0  0  0  0  0  0  0  0  0  0  0  0
  -27.9957   -4.8267  -30.6575 C   0  0  0  0  0  0  0  0  0  0  0  0
  -28.3955   -5.7401  -29.6224 N   0  0  0  0  0  0  0  0  0  0  0  0
  -28.6831   -7.0378  -30.0699 C   0  0  0  0  0  0  0  0  0  0  0  0
  1  2  2  0
  1  3  1  0
  2  4  1  0
  4  5  1  0
  5  6  1  0
  6  7  1  0
  1  7  1  0
M  END
>  <name>  (3) 
Car Nac Nd0 Car Car Nd0 Car

>  <indices>  (3) 
[0, 1, 2]

>  <dummy>  (3) 
2

>  <tasks>  (3) 
probe_placing close_aromatic_ring close_aromatic_ring close_aromatic_ring

>  <current_task>  (3) 
close_aromatic_ring

>  <prot_clashes>  (3) 
1

>  <NBS phar>  (3) 
0.2

>  <NBS_non-phar>  (3) 
0.7492329279581705

>  <NBS>  (3) 
0.9492329279581706

>  <source_stage>  (3) 
scored

>  <source_iter>  (3) 
3

>  <source_parent_mol>  (3) 
0

>  <source_scenario>  (3) 
1 0 0

>  <source_rank_in_scored_call>  (3) 
3

>  <source_current_task>  (3) 
close_aromatic_ring

>  <scenario>  (3) 
1 0 0

>  <rotatable_bond_torsions>  (3) 
0,1,3,4;1,3,4,5

>  <reason_to_skip>  (3) 
too many Car with no DBs

$$$$

     RDKit          3D

  7  7  0  0  0  0  0  0  0  0999 V2000
  -27.9578   -7.4789  -31.2236 C   0  0  0  0  0  0  0  0  0  0  0  0
  -27.5868   -6.6925  -32.0458 N   0  0  0  0  0  0  0  0  0  0  0  0
  -27.6840   -8.8650  -31.2620 N   0  0  0  0  0  0  0  0  0  0  0  0
  -27.5772   -5.2588  -31.9588 C   0  0  0  0  0  0  0  0  0  0  0  0
  -28.5878   -4.9935  -30.8291 C   0  0  0  0  0  0  0  0  0  0  0  0
  -28.2681   -5.6928  -29.6288 N   0  0  0  0  0  0  0  0  0  0  0  0
  -28.4631   -7.1437  -29.8500 C   0  0  0  0  0  0  0  0  0  0  0  0
  1  2  2  0
  1  3  1  0
  2  4  1  0
  4  5  1  0
  5  6  1  0
  6  7  1  0
  1  7  1  0
M  END
>  <name>  (4) 
Car Nac Nd0 Car Car Nd0 Car

>  <indices>  (4) 
[0, 1, 2]

>  <dummy>  (4) 
2

>  <tasks>  (4) 
probe_placing close_aromatic_ring close_aromatic_ring close_aromatic_ring

>  <current_task>  (4) 
close_aromatic_ring

>  <prot_clashes>  (4) 
1

>  <NBS phar>  (4) 
0.2

>  <NBS_non-phar>  (4) 
0.7492329279581705

>  <NBS>  (4) 
0.9492329279581706

>  <source_stage>  (4) 
scored

>  <source_iter>  (4) 
3

>  <source_parent_mol>  (4) 
0

>  <source_scenario>  (4) 
1 0 0

>  <source_rank_in_scored_call>  (4) 
3

>  <source_current_task>  (4) 
close_aromatic_ring

>  <scenario>  (4) 
1 0 0

>  <rotatable_bond_torsions>  (4) 
0,1,3,4;1,3,4,5

>  <reason_to_skip>  (4) 
too many Car with no DBs

$$$$

     RDKit          3D

  7  6  0  0  0  0  0  0  0  0999 V2000
  -27.8640   -7.4760  -31.1990 C   0  0  0  0  0  0  0  0  0  0  0  0
  -27.5380   -6.7190  -32.2850 N   0  0  0  0  0  0  0  0  0  0  0  0
  -27.6840   -8.8650  -31.2620 N   0  0  0  0  0  0  0  0  0  0  0  0
  -27.8024   -5.3830  -31.8813 C   0  0  0  0  0  0  0  0  0  0  0  0
  -28.2578   -4.8905  -30.7215 C   0  0  0  0  0  0  0  0  0  0  0  0
  -28.5614   -5.7200  -29.6646 N   0  0  0  0  0  0  0  0  0  0  0  0
  -28.8858   -5.3029  -28.4406 C   0  0  0  0  0  0  0  0  0  0  0  0
  1  2  2  3
  1  3  1  0
  2  4  1  0
  4  5  1  0
  5  6  1  0
  6  7  1  0
M  END
>  <name>  (5) 
Car Nac Nd0 Car Car Nd0 Car

>  <indices>  (5) 
[0, 1, 2]

>  <dummy>  (5) 
2

>  <tasks>  (5) 
probe_placing close_aromatic_ring close_aromatic_ring close_aromatic_ring

>  <current_task>  (5) 
close_aromatic_ring

>  <prot_clashes>  (5) 
1

>  <NBS phar>  (5) 
0.2

>  <NBS_non-phar>  (5) 
0.7492329279581705

>  <NBS>  (5) 
0.9492329279581706

>  <source_stage>  (5) 
scored

>  <source_iter>  (5) 
3

>  <source_parent_mol>  (5) 
0

>  <source_scenario>  (5) 
1 0 0

>  <source_rank_in_scored_call>  (5) 
3

>  <source_current_task>  (5) 
close_aromatic_ring

>  <scenario>  (5) 
1 0 0

>  <rotatable_bond_torsions>  (5) 
0,1,3,4;1,3,4,5

>  <reason_to_skip>  (5) 
incorrect arom ring closing

$$$$

     RDKit          3D

  7  6  0  0  0  0  0  0  0  0999 V2000
  -27.8640   -7.4760  -31.1990 C   0  0  0  0  0  0  0  0  0  0  0  0
  -27.5380   -6.7190  -32.2850 N   0  0  0  0  0  0  0  0  0  0  0  0
  -27.6840   -8.8650  -31.2620 N   0  0  0  0  0  0  0  0  0  0  0  0
  -27.8024   -5.3830  -31.8813 C   0  0  0  0  0  0  0  0  0  0  0  0
  -28.2578   -4.8905  -30.7215 C   0  0  0  0  0  0  0  0  0  0  0  0
  -28.5614   -5.7200  -29.6646 N   0  0  0  0  0  0  0  0  0  0  0  0
  -28.2429   -6.9176  -30.2963 N   0  0  0  0  0  0  0  0  0  0  0  0
  1  2  2  3
  1  3  1  0
  2  4  1  0
  4  5  1  0
  5  6  1  0
  6  7  1  0
M  END
>  <name>  (6) 
Car Nac Nd0 Car Car Nd0 Nac

>  <indices>  (6) 
[0, 1, 2]

>  <dummy>  (6) 
2

>  <tasks>  (6) 
probe_placing close_aromatic_ring close_aromatic_ring close_aromatic_ring

>  <current_task>  (6) 
close_aromatic_ring

>  <prot_clashes>  (6) 
1

>  <NBS phar>  (6) 
0.2

>  <NBS_non-phar>  (6) 
0.7492329279581705

>  <NBS>  (6) 
0.9492329279581706

>  <source_stage>  (6) 
scored

>  <source_iter>  (6) 
3

>  <source_parent_mol>  (6) 
0

>  <source_scenario>  (6) 
1 0 0

>  <source_rank_in_scored_call>  (6) 
3

>  <source_current_task>  (6) 
close_aromatic_ring

>  <scenario>  (6) 
1 0 0

>  <rotatable_bond_torsions>  (6) 
0,1,3,4;1,3,4,5

>  <reason_to_skip>  (6) 
bad angles

$$$$

     RDKit          3D

  7  6  0  0  0  0  0  0  0  0999 V2000
  -27.8640   -7.4760  -31.1990 C   0  0  0  0  0  0  0  0  0  0  0  0
  -27.5380   -6.7190  -32.2850 N   0  0  0  0  0  0  0  0  0  0  0  0
  -27.6840   -8.8650  -31.2620 N   0  0  0  0  0  0  0  0  0  0  0  0
  -27.8024   -5.3830  -31.8813 C   0  0  0  0  0  0  0  0  0  0  0  0
  -28.2578   -4.8905  -30.7215 C   0  0  0  0  0  0  0  0  0  0  0  0
  -28.5614   -5.7200  -29.6646 N   0  0  0  0  0  0  0  0  0  0  0  0
  -28.9974   -4.9145  -28.6352 N   0  0  0  0  0  0  0  0  0  0  0  0
  1  2  2  3
  1  3  1  0
  2  4  1  0
  4  5  1  0
  5  6  1  0
  6  7  1  0
M  END
>  <name>  (7) 
Car Nac Nd0 Car Car Nd0 Nac

>  <indices>  (7) 
[0, 1, 2]

>  <dummy>  (7) 
2

>  <tasks>  (7) 
probe_placing close_aromatic_ring close_aromatic_ring close_aromatic_ring

>  <current_task>  (7) 
close_aromatic_ring

>  <prot_clashes>  (7) 
1

>  <NBS phar>  (7) 
0.2

>  <NBS_non-phar>  (7) 
0.7492329279581705

>  <NBS>  (7) 
0.9492329279581706

>  <source_stage>  (7) 
scored

>  <source_iter>  (7) 
3

>  <source_parent_mol>  (7) 
0

>  <source_scenario>  (7) 
1 0 0

>  <source_rank_in_scored_call>  (7) 
3

>  <source_current_task>  (7) 
close_aromatic_ring

>  <scenario>  (7) 
1 0 0

>  <rotatable_bond_torsions>  (7) 
0,1,3,4;1,3,4,5

>  <reason_to_skip>  (7) 
incorrect arom ring closing

$$$$

     RDKit          3D

  7  6  0  0  0  0  0  0  0  0999 V2000
  -27.8640   -7.4760  -31.1990 C   0  0  0  0  0  0  0  0  0  0  0  0
  -27.5380   -6.7190  -32.2850 N   0  0  0  0  0  0  0  0  0  0  0  0
  -27.6840   -8.8650  -31.2620 N   0  0  0  0  0  0  0  0  0  0  0  0
  -27.8024   -5.3830  -31.8813 C   0  0  0  0  0  0  0  0  0  0  0  0
  -28.2578   -4.8905  -30.7215 C   0  0  0  0  0  0  0  0  0  0  0  0
  -28.5614   -5.7200  -29.6646 N   0  0  0  0  0  0  0  0  0  0  0  0
  -28.6232   -5.4588  -28.3413 C   0  0  0  0  0  0  0  0  0  0  0  0
  1  2  2  3
  1  3  1  0
  2  4  1  0
  4  5  1  0
  5  6  1  0
  6  7  1  0
M  END
>  <name>  (8) 
Car Nac Nd0 Car Car Nd0 Car

>  <indices>  (8) 
[0, 1, 2]

>  <dummy>  (8) 
2

>  <tasks>  (8) 
probe_placing close_aromatic_ring close_aromatic_ring close_aromatic_ring

>  <current_task>  (8) 
close_aromatic_ring

>  <prot_clashes>  (8) 
1

>  <NBS phar>  (8) 
0.2

>  <NBS_non-phar>  (8) 
0.7492329279581705

>  <NBS>  (8) 
0.9492329279581706

>  <source_stage>  (8) 
scored

>  <source_iter>  (8) 
3

>  <source_parent_mol>  (8) 
0

>  <source_scenario>  (8) 
1 0 0

>  <source_rank_in_scored_call>  (8) 
3

>  <source_current_task>  (8) 
close_aromatic_ring

>  <scenario>  (8) 
1 0 0

>  <rotatable_bond_torsions>  (8) 
0,1,3,4;1,3,4,5

>  <reason_to_skip>  (8) 
incorrect arom ring closing

$$$$

     RDKit          3D

  7  6  0  0  0  0  0  0  0  0999 V2000
  -27.8640   -7.4760  -31.1990 C   0  0  0  0  0  0  0  0  0  0  0  0
  -27.5380   -6.7190  -32.2850 N   0  0  0  0  0  0  0  0  0  0  0  0
  -27.6840   -8.8650  -31.2620 N   0  0  0  0  0  0  0  0  0  0  0  0
  -27.8024   -5.3830  -31.8813 C   0  0  0  0  0  0  0  0  0  0  0  0
  -28.2578   -4.8905  -30.7215 C   0  0  0  0  0  0  0  0  0  0  0  0
  -28.5614   -5.7200  -29.6646 N   0  0  0  0  0  0  0  0  0  0  0  0
  -29.8893   -5.8864  -29.1084 C   0  0  0  0  0  0  0  0  0  0  0  0
  1  2  2  3
  1  3  1  0
  2  4  1  0
  4  5  1  0
  5  6  1  0
  6  7  1  0
M  END
>  <name>  (9) 
Car Nac Nd0 Car Car Nd0 Car

>  <indices>  (9) 
[0, 1, 2]

>  <dummy>  (9) 
2

>  <tasks>  (9) 
probe_placing close_aromatic_ring close_aromatic_ring close_aromatic_ring

>  <current_task>  (9) 
close_aromatic_ring

>  <prot_clashes>  (9) 
1

>  <NBS phar>  (9) 
0.2

>  <NBS_non-phar>  (9) 
0.7492329279581705

>  <NBS>  (9) 
0.9492329279581706

>  <source_stage>  (9) 
scored

>  <source_iter>  (9) 
3

>  <source_parent_mol>  (9) 
0

>  <source_scenario>  (9) 
1 0 0

>  <source_rank_in_scored_call>  (9) 
3

>  <source_current_task>  (9) 
close_aromatic_ring

>  <scenario>  (9) 
1 0 0

>  <rotatable_bond_torsions>  (9) 
0,1,3,4;1,3,4,5

>  <reason_to_skip>  (9) 
incorrect arom ring closing

$$$$

     RDKit          3D

  7  6  0  0  0  0  0  0  0  0999 V2000
  -27.8640   -7.4760  -31.1990 C   0  0  0  0  0  0  0  0  0  0  0  0
  -27.5380   -6.7190  -32.2850 N   0  0  0  0  0  0  0  0  0  0  0  0
  -27.6840   -8.8650  -31.2620 N   0  0  0  0  0  0  0  0  0  0  0  0
  -27.8024   -5.3830  -31.8813 C   0  0  0  0  0  0  0  0  0  0  0  0
  -28.2578   -4.8905  -30.7215 C   0  0  0  0  0  0  0  0  0  0  0  0
  -28.5614   -5.7200  -29.6646 N   0  0  0  0  0  0  0  0  0  0  0  0
  -27.7667   -5.7525  -28.4544 C   0  0  0  0  0  0  0  0  0  0  0  0
  1  2  2  3
  1  3  1  0
  2  4  1  0
  4  5  1  0
  5  6  1  0
  6  7  1  0
M  END
>  <name>  (10) 
Car Nac Nd0 Car Car Nd0 Car

>  <indices>  (10) 
[0, 1, 2]

>  <dummy>  (10) 
2

>  <tasks>  (10) 
probe_placing close_aromatic_ring close_aromatic_ring close_aromatic_ring

>  <current_task>  (10) 
close_aromatic_ring

>  <prot_clashes>  (10) 
1

>  <NBS phar>  (10) 
0.2

>  <NBS_non-phar>  (10) 
0.7492329279581705

>  <NBS>  (10) 
0.9492329279581706

>  <source_stage>  (10) 
scored

>  <source_iter>  (10) 
3

>  <source_parent_mol>  (10) 
0

>  <source_scenario>  (10) 
1 0 0

>  <source_rank_in_scored_call>  (10) 
3

>  <source_current_task>  (10) 
close_aromatic_ring

>  <scenario>  (10) 
1 0 0

>  <rotatable_bond_torsions>  (10) 
0,1,3,4;1,3,4,5

>  <reason_to_skip>  (10) 
incorrect arom ring closing

$$$$

     RDKit          3D

  7  6  0  0  0  0  0  0  0  0999 V2000
  -27.8640   -7.4760  -31.1990 C   0  0  0  0  0  0  0  0  0  0  0  0
  -27.5380   -6.7190  -32.2850 N   0  0  0  0  0  0  0  0  0  0  0  0
  -27.6840   -8.8650  -31.2620 N   0  0  0  0  0  0  0  0  0  0  0  0
  -27.8024   -5.3830  -31.8813 C   0  0  0  0  0  0  0  0  0  0  0  0
  -28.2578   -4.8905  -30.7215 C   0  0  0  0  0  0  0  0  0  0  0  0
  -28.5614   -5.7200  -29.6646 N   0  0  0  0  0  0  0  0  0  0  0  0
  -29.8051   -5.9069  -29.2672 C   0  0  0  0  0  0  0  0  0  0  0  0
  1  2  2  3
  1  3  1  0
  2  4  1  0
  4  5  1  0
  5  6  1  0
  6  7  1  0
M  END
>  <name>  (11) 
Car Nac Nd0 Car Car Nd0 Car

>  <indices>  (11) 
[0, 1, 2]

>  <dummy>  (11) 
2

>  <tasks>  (11) 
probe_placing close_aromatic_ring close_aromatic_ring close_aromatic_ring

>  <current_task>  (11) 
close_aromatic_ring

>  <prot_clashes>  (11) 
1

>  <NBS phar>  (11) 
0.2

>  <NBS_non-phar>  (11) 
0.7492329279581705

>  <NBS>  (11) 
0.9492329279581706

>  <source_stage>  (11) 
scored

>  <source_iter>  (11) 
3

>  <source_parent_mol>  (11) 
0

>  <source_scenario>  (11) 
1 0 0

>  <source_rank_in_scored_call>  (11) 
3

>  <source_current_task>  (11) 
close_aromatic_ring

>  <scenario>  (11) 
1 0 0

>  <rotatable_bond_torsions>  (11) 
0,1,3,4;1,3,4,5

>  <reason_to_skip>  (11) 
incorrect arom ring closing

$$$$

     RDKit          3D

  7  6  0  0  0  0  0  0  0  0999 V2000
  -27.8640   -7.4760  -31.1990 C   0  0  0  0  0  0  0  0  0  0  0  0
  -27.5380   -6.7190  -32.2850 N   0  0  0  0  0  0  0  0  0  0  0  0
  -27.6840   -8.8650  -31.2620 N   0  0  0  0  0  0  0  0  0  0  0  0
  -27.8024   -5.3830  -31.8813 C   0  0  0  0  0  0  0  0  0  0  0  0
  -28.2578   -4.8905  -30.7215 C   0  0  0  0  0  0  0  0  0  0  0  0
  -28.5614   -5.7200  -29.6646 N   0  0  0  0  0  0  0  0  0  0  0  0
  -28.9685   -4.8602  -28.6750 N   0  0  0  0  0  0  0  0  0  0  0  0
  1  2  2  3
  1  3  1  0
  2  4  1  0
  4  5  1  0
  5  6  1  0
  6  7  1  0
M  END
>  <name>  (12) 
Car Nac Nd0 Car Car Nd0 Nac

>  <indices>  (12) 
[0, 1, 2]

>  <dummy>  (12) 
2

>  <tasks>  (12) 
probe_placing close_aromatic_ring close_aromatic_ring close_aromatic_ring

>  <current_task>  (12) 
close_aromatic_ring

>  <prot_clashes>  (12) 
1

>  <NBS phar>  (12) 
0.2

>  <NBS_non-phar>  (12) 
0.7492329279581705

>  <NBS>  (12) 
0.9492329279581706

>  <source_stage>  (12) 
scored

>  <source_iter>  (12) 
3

>  <source_parent_mol>  (12) 
0

>  <source_scenario>  (12) 
1 0 0

>  <source_rank_in_scored_call>  (12) 
3

>  <source_current_task>  (12) 
close_aromatic_ring

>  <scenario>  (12) 
1 0 0

>  <rotatable_bond_torsions>  (12) 
0,1,3,4;1,3,4,5

>  <reason_to_skip>  (12) 
incorrect arom ring closing

$$$$

     RDKit          3D

  7  6  0  0  0  0  0  0  0  0999 V2000
  -27.8640   -7.4760  -31.1990 C   0  0  0  0  0  0  0  0  0  0  0  0
  -27.5380   -6.7190  -32.2850 N   0  0  0  0  0  0  0  0  0  0  0  0
  -27.6840   -8.8650  -31.2620 N   0  0  0  0  0  0  0  0  0  0  0  0
  -27.8024   -5.3830  -31.8813 C   0  0  0  0  0  0  0  0  0  0  0  0
  -28.2578   -4.8905  -30.7215 C   0  0  0  0  0  0  0  0  0  0  0  0
  -28.5614   -5.7200  -29.6646 N   0  0  0  0  0  0  0  0  0  0  0  0
    0.0000    0.0000    0.0000 O   0  0  0  0  0  0  0  0  0  0  0  0
  1  2  2  3
  1  3  1  0
  2  4  1  0
  4  5  1  0
  5  6  1  0
  6  7  1  0
M  END
>  <name>  (13) 
Car Nac Nd0 Car Car Nd0 O_a

>  <indices>  (13) 
[0, 1, 2]

>  <dummy>  (13) 
2

>  <tasks>  (13) 
probe_placing close_aromatic_ring close_aromatic_ring close_aromatic_ring

>  <current_task>  (13) 
close_aromatic_ring

>  <prot_clashes>  (13) 
1

>  <NBS phar>  (13) 
0.2

>  <NBS_non-phar>  (13) 
0.7492329279581705

>  <NBS>  (13) 
0.9492329279581706

>  <source_stage>  (13) 
scored

>  <source_iter>  (13) 
3

>  <source_parent_mol>  (13) 
0

>  <source_scenario>  (13) 
1 0 0

>  <source_rank_in_scored_call>  (13) 
3

>  <source_current_task>  (13) 
close_aromatic_ring

>  <scenario>  (13) 
1 0 0

>  <rotatable_bond_torsions>  (13) 
0,1,3,4;1,3,4,5

>  <reason_to_skip>  (13) 
some_atom_counter_exceeded

$$$$

     RDKit          3D

  7  6  0  0  0  0  0  0  0  0999 V2000
  -27.8640   -7.4760  -31.1990 C   0  0  0  0  0  0  0  0  0  0  0  0
  -27.5380   -6.7190  -32.2850 N   0  0  0  0  0  0  0  0  0  0  0  0
  -27.6840   -8.8650  -31.2620 N   0  0  0  0  0  0  0  0  0  0  0  0
  -27.8024   -5.3830  -31.8813 C   0  0  0  0  0  0  0  0  0  0  0  0
  -28.2578   -4.8905  -30.7215 C   0  0  0  0  0  0  0  0  0  0  0  0
  -28.5614   -5.7200  -29.6646 N   0  0  0  0  0  0  0  0  0  0  0  0
    0.0000    0.0000    0.0000 O   0  0  0  0  0  0  0  0  0  0  0  0
  1  2  2  3
  1  3  1  0
  2  4  1  0
  4  5  1  0
  5  6  1  0
  6  7  1  0
M  END
>  <name>  (14) 
Car Nac Nd0 Car Car Nd0 O_a

>  <indices>  (14) 
[0, 1, 2]

>  <dummy>  (14) 
2

>  <tasks>  (14) 
probe_placing close_aromatic_ring close_aromatic_ring close_aromatic_ring

>  <current_task>  (14) 
close_aromatic_ring

>  <prot_clashes>  (14) 
1

>  <NBS phar>  (14) 
0.2

>  <NBS_non-phar>  (14) 
0.7492329279581705

>  <NBS>  (14) 
0.9492329279581706

>  <source_stage>  (14) 
scored

>  <source_iter>  (14) 
3

>  <source_parent_mol>  (14) 
0

>  <source_scenario>  (14) 
1 0 0

>  <source_rank_in_scored_call>  (14) 
3

>  <source_current_task>  (14) 
close_aromatic_ring

>  <scenario>  (14) 
1 0 0

>  <rotatable_bond_torsions>  (14) 
0,1,3,4;1,3,4,5

>  <reason_to_skip>  (14) 
some_atom_counter_exceeded

$$$$

     RDKit          3D

  7  6  0  0  0  0  0  0  0  0999 V2000
  -27.8640   -7.4760  -31.1990 C   0  0  0  0  0  0  0  0  0  0  0  0
  -27.5380   -6.7190  -32.2850 N   0  0  0  0  0  0  0  0  0  0  0  0
  -27.6840   -8.8650  -31.2620 N   0  0  0  0  0  0  0  0  0  0  0  0
  -27.8024   -5.3830  -31.8813 C   0  0  0  0  0  0  0  0  0  0  0  0
  -28.2578   -4.8905  -30.7215 C   0  0  0  0  0  0  0  0  0  0  0  0
  -28.5614   -5.7200  -29.6646 N   0  0  0  0  0  0  0  0  0  0  0  0
  -29.1664   -6.7997  -29.6809 N   0  0  0  0  0  0  0  0  0  0  0  0
  1  2  2  3
  1  3  1  0
  2  4  1  0
  4  5  1  0
  5  6  1  0
  6  7  1  0
M  END
>  <name>  (15) 
Car Nac Nd0 Car Car Nd0 Nac

>  <indices>  (15) 
[0, 1, 2]

>  <dummy>  (15) 
2

>  <tasks>  (15) 
probe_placing close_aromatic_ring close_aromatic_ring close_aromatic_ring

>  <current_task>  (15) 
close_aromatic_ring

>  <prot_clashes>  (15) 
1

>  <NBS phar>  (15) 
0.2

>  <NBS_non-phar>  (15) 
0.7492329279581705

>  <NBS>  (15) 
0.9492329279581706

>  <source_stage>  (15) 
scored

>  <source_iter>  (15) 
3

>  <source_parent_mol>  (15) 
0

>  <source_scenario>  (15) 
1 0 0

>  <source_rank_in_scored_call>  (15) 
3

>  <source_current_task>  (15) 
close_aromatic_ring

>  <scenario>  (15) 
1 0 0

>  <rotatable_bond_torsions>  (15) 
0,1,3,4;1,3,4,5

>  <reason_to_skip>  (15) 
incorrect arom ring closing

$$$$

     RDKit          3D

  7  6  0  0  0  0  0  0  0  0999 V2000
  -27.8640   -7.4760  -31.1990 C   0  0  0  0  0  0  0  0  0  0  0  0
  -27.5380   -6.7190  -32.2850 N   0  0  0  0  0  0  0  0  0  0  0  0
  -27.6840   -8.8650  -31.2620 N   0  0  0  0  0  0  0  0  0  0  0  0
  -27.8024   -5.3830  -31.8813 C   0  0  0  0  0  0  0  0  0  0  0  0
  -28.2578   -4.8905  -30.7215 C   0  0  0  0  0  0  0  0  0  0  0  0
  -28.5614   -5.7200  -29.6646 N   0  0  0  0  0  0  0  0  0  0  0  0
    0.0000    0.0000    0.0000 N   0  0  0  0  0  0  0  0  0  0  0  0
  1  2  2  3
  1  3  1  0
  2  4  1  0
  4  5  1  0
  5  6  1  0
  6  7  1  0
M  END
>  <name>  (16) 
Car Nac Nd0 Car Car Nd0 Nd0

>  <indices>  (16) 
[0, 1, 2]

>  <dummy>  (16) 
2

>  <tasks>  (16) 
probe_placing close_aromatic_ring close_aromatic_ring close_aromatic_ring

>  <current_task>  (16) 
close_aromatic_ring

>  <prot_clashes>  (16) 
1

>  <NBS phar>  (16) 
0.2

>  <NBS_non-phar>  (16) 
0.7492329279581705

>  <NBS>  (16) 
0.9492329279581706

>  <source_stage>  (16) 
scored

>  <source_iter>  (16) 
3

>  <source_parent_mol>  (16) 
0

>  <source_scenario>  (16) 
1 0 0

>  <source_rank_in_scored_call>  (16) 
3

>  <source_current_task>  (16) 
close_aromatic_ring

>  <scenario>  (16) 
1 0 0

>  <rotatable_bond_torsions>  (16) 
0,1,3,4;1,3,4,5

>  <reason_to_skip>  (16) 
some_atom_counter_exceeded

$$$$

     RDKit          3D

  7  6  0  0  0  0  0  0  0  0999 V2000
  -27.8640   -7.4760  -31.1990 C   0  0  0  0  0  0  0  0  0  0  0  0
  -27.5380   -6.7190  -32.2850 N   0  0  0  0  0  0  0  0  0  0  0  0
  -27.6840   -8.8650  -31.2620 N   0  0  0  0  0  0  0  0  0  0  0  0
  -27.8024   -5.3830  -31.8813 C   0  0  0  0  0  0  0  0  0  0  0  0
  -28.2578   -4.8905  -30.7215 C   0  0  0  0  0  0  0  0  0  0  0  0
  -28.5614   -5.7200  -29.6646 N   0  0  0  0  0  0  0  0  0  0  0  0
    0.0000    0.0000    0.0000 N   0  0  0  0  0  0  0  0  0  0  0  0
  1  2  2  3
  1  3  1  0
  2  4  1  0
  4  5  1  0
  5  6  1  0
  6  7  1  0
M  END
>  <name>  (17) 
Car Nac Nd0 Car Car Nd0 Nd0

>  <indices>  (17) 
[0, 1, 2]

>  <dummy>  (17) 
2

>  <tasks>  (17) 
probe_placing close_aromatic_ring close_aromatic_ring close_aromatic_ring

>  <current_task>  (17) 
close_aromatic_ring

>  <prot_clashes>  (17) 
1

>  <NBS phar>  (17) 
0.2

>  <NBS_non-phar>  (17) 
0.7492329279581705

>  <NBS>  (17) 
0.9492329279581706

>  <source_stage>  (17) 
scored

>  <source_iter>  (17) 
3

>  <source_parent_mol>  (17) 
0

>  <source_scenario>  (17) 
1 0 0

>  <source_rank_in_scored_call>  (17) 
3

>  <source_current_task>  (17) 
close_aromatic_ring

>  <scenario>  (17) 
1 0 0

>  <rotatable_bond_torsions>  (17) 
0,1,3,4;1,3,4,5

>  <reason_to_skip>  (17) 
some_atom_counter_exceeded

$$$$

     RDKit          3D

  7  6  0  0  0  0  0  0  0  0999 V2000
  -27.8640   -7.4760  -31.1990 C   0  0  0  0  0  0  0  0  0  0  0  0
  -27.5380   -6.7190  -32.2850 N   0  0  0  0  0  0  0  0  0  0  0  0
  -27.6840   -8.8650  -31.2620 N   0  0  0  0  0  0  0  0  0  0  0  0
  -27.8024   -5.3830  -31.8813 C   0  0  0  0  0  0  0  0  0  0  0  0
  -28.2578   -4.8905  -30.7215 C   0  0  0  0  0  0  0  0  0  0  0  0
  -28.5614   -5.7200  -29.6646 N   0  0  0  0  0  0  0  0  0  0  0  0
  -29.8734   -6.1794  -29.3178 N   0  0  0  0  0  0  0  0  0  0  0  0
  1  2  2  3
  1  3  1  0
  2  4  1  0
  4  5  1  0
  5  6  1  0
  6  7  1  0
M  END
>  <name>  (18) 
Car Nac Nd0 Car Car Nd0 Nac

>  <indices>  (18) 
[0, 1, 2]

>  <dummy>  (18) 
2

>  <tasks>  (18) 
probe_placing close_aromatic_ring close_aromatic_ring close_aromatic_ring

>  <current_task>  (18) 
close_aromatic_ring

>  <prot_clashes>  (18) 
1

>  <NBS phar>  (18) 
0.2

>  <NBS_non-phar>  (18) 
0.7492329279581705

>  <NBS>  (18) 
0.9492329279581706

>  <source_stage>  (18) 
scored

>  <source_iter>  (18) 
3

>  <source_parent_mol>  (18) 
0

>  <source_scenario>  (18) 
1 0 0

>  <source_rank_in_scored_call>  (18) 
3

>  <source_current_task>  (18) 
close_aromatic_ring

>  <scenario>  (18) 
1 0 0

>  <rotatable_bond_torsions>  (18) 
0,1,3,4;1,3,4,5

>  <reason_to_skip>  (18) 
incorrect arom ring closing

$$$$

     RDKit          3D

  7  6  0  0  0  0  0  0  0  0999 V2000
  -27.8640   -7.4760  -31.1990 C   0  0  0  0  0  0  0  0  0  0  0  0
  -27.5380   -6.7190  -32.2850 N   0  0  0  0  0  0  0  0  0  0  0  0
  -27.6840   -8.8650  -31.2620 N   0  0  0  0  0  0  0  0  0  0  0  0
  -27.8024   -5.3830  -31.8813 C   0  0  0  0  0  0  0  0  0  0  0  0
  -28.2578   -4.8905  -30.7215 C   0  0  0  0  0  0  0  0  0  0  0  0
  -28.5614   -5.7200  -29.6646 N   0  0  0  0  0  0  0  0  0  0  0  0
  -27.6210   -6.2109  -28.7283 N   0  0  0  0  0  0  0  0  0  0  0  0
  1  2  2  3
  1  3  1  0
  2  4  1  0
  4  5  1  0
  5  6  1  0
  6  7  1  0
M  END
>  <name>  (19) 
Car Nac Nd0 Car Car Nd0 Nac

>  <indices>  (19) 
[0, 1, 2]

>  <dummy>  (19) 
2

>  <tasks>  (19) 
probe_placing close_aromatic_ring close_aromatic_ring close_aromatic_ring

>  <current_task>  (19) 
close_aromatic_ring

>  <prot_clashes>  (19) 
1

>  <NBS phar>  (19) 
0.2

>  <NBS_non-phar>  (19) 
0.7492329279581705

>  <NBS>  (19) 
0.9492329279581706

>  <source_stage>  (19) 
scored

>  <source_iter>  (19) 
3

>  <source_parent_mol>  (19) 
0

>  <source_scenario>  (19) 
1 0 0

>  <source_rank_in_scored_call>  (19) 
3

>  <source_current_task>  (19) 
close_aromatic_ring

>  <scenario>  (19) 
1 0 0

>  <rotatable_bond_torsions>  (19) 
0,1,3,4;1,3,4,5

>  <reason_to_skip>  (19) 
incorrect arom ring closing

$$$$

     RDKit          3D

  7  6  0  0  0  0  0  0  0  0999 V2000
  -27.8640   -7.4760  -31.1990 C   0  0  0  0  0  0  0  0  0  0  0  0
  -27.5380   -6.7190  -32.2850 N   0  0  0  0  0  0  0  0  0  0  0  0
  -27.6840   -8.8650  -31.2620 N   0  0  0  0  0  0  0  0  0  0  0  0
  -27.8024   -5.3830  -31.8813 C   0  0  0  0  0  0  0  0  0  0  0  0
  -28.2578   -4.8905  -30.7215 C   0  0  0  0  0  0  0  0  0  0  0  0
  -28.5614   -5.7200  -29.6646 N   0  0  0  0  0  0  0  0  0  0  0  0
  -28.1055   -6.7613  -29.2279 N   0  0  0  0  0  0  0  0  0  0  0  0
  1  2  2  3
  1  3  1  0
  2  4  1  0
  4  5  1  0
  5  6  1  0
  6  7  1  0
M  END
>  <name>  (20) 
Car Nac Nd0 Car Car Nd0 Nac

>  <indices>  (20) 
[0, 1, 2]

>  <dummy>  (20) 
2

>  <tasks>  (20) 
probe_placing close_aromatic_ring close_aromatic_ring close_aromatic_ring

>  <current_task>  (20) 
close_aromatic_ring

>  <prot_clashes>  (20) 
1

>  <NBS phar>  (20) 
0.2

>  <NBS_non-phar>  (20) 
0.7492329279581705

>  <NBS>  (20) 
0.9492329279581706

>  <source_stage>  (20) 
scored

>  <source_iter>  (20) 
3

>  <source_parent_mol>  (20) 
0

>  <source_scenario>  (20) 
1 0 0

>  <source_rank_in_scored_call>  (20) 
3

>  <source_current_task>  (20) 
close_aromatic_ring

>  <scenario>  (20) 
1 0 0

>  <rotatable_bond_torsions>  (20) 
0,1,3,4;1,3,4,5

>  <reason_to_skip>  (20) 
bad angles

$$$$

     RDKit          3D

  7  6  0  0  0  0  0  0  0  0999 V2000
  -27.8640   -7.4760  -31.1990 C   0  0  0  0  0  0  0  0  0  0  0  0
  -27.5380   -6.7190  -32.2850 N   0  0  0  0  0  0  0  0  0  0  0  0
  -27.6840   -8.8650  -31.2620 N   0  0  0  0  0  0  0  0  0  0  0  0
  -27.8024   -5.3830  -31.8813 C   0  0  0  0  0  0  0  0  0  0  0  0
  -28.2578   -4.8905  -30.7215 C   0  0  0  0  0  0  0  0  0  0  0  0
  -28.5614   -5.7200  -29.6646 N   0  0  0  0  0  0  0  0  0  0  0  0
    0.0000    0.0000    0.0000 N   0  0  0  0  0  0  0  0  0  0  0  0
  1  2  2  3
  1  3  1  0
  2  4  1  0
  4  5  1  0
  5  6  1  0
  6  7  1  0
M  END
>  <name>  (21) 
Car Nac Nd0 Car Car Nd0 Nd0

>  <indices>  (21) 
[0, 1, 2]

>  <dummy>  (21) 
2

>  <tasks>  (21) 
probe_placing close_aromatic_ring close_aromatic_ring close_aromatic_ring

>  <current_task>  (21) 
close_aromatic_ring

>  <prot_clashes>  (21) 
1

>  <NBS phar>  (21) 
0.2

>  <NBS_non-phar>  (21) 
0.7492329279581705

>  <NBS>  (21) 
0.9492329279581706

>  <source_stage>  (21) 
scored

>  <source_iter>  (21) 
3

>  <source_parent_mol>  (21) 
0

>  <source_scenario>  (21) 
1 0 0

>  <source_rank_in_scored_call>  (21) 
3

>  <source_current_task>  (21) 
close_aromatic_ring

>  <scenario>  (21) 
1 0 0

>  <rotatable_bond_torsions>  (21) 
0,1,3,4;1,3,4,5

>  <reason_to_skip>  (21) 
some_atom_counter_exceeded

$$$$

     RDKit          3D

  7  6  0  0  0  0  0  0  0  0999 V2000
  -27.8640   -7.4760  -31.1990 C   0  0  0  0  0  0  0  0  0  0  0  0
  -27.5380   -6.7190  -32.2850 N   0  0  0  0  0  0  0  0  0  0  0  0
  -27.6840   -8.8650  -31.2620 N   0  0  0  0  0  0  0  0  0  0  0  0
  -27.8024   -5.3830  -31.8813 C   0  0  0  0  0  0  0  0  0  0  0  0
  -28.2578   -4.8905  -30.7215 C   0  0  0  0  0  0  0  0  0  0  0  0
  -28.5614   -5.7200  -29.6646 N   0  0  0  0  0  0  0  0  0  0  0  0
    0.0000    0.0000    0.0000 S   0  0  0  0  0  0  0  0  0  0  0  0
  1  2  2  3
  1  3  1  0
  2  4  1  0
  4  5  1  0
  5  6  1  0
  6  7  1  0
M  END
>  <name>  (22) 
Car Nac Nd0 Car Car Nd0 Sul

>  <indices>  (22) 
[0, 1, 2]

>  <dummy>  (22) 
2

>  <tasks>  (22) 
probe_placing close_aromatic_ring close_aromatic_ring close_aromatic_ring

>  <current_task>  (22) 
close_aromatic_ring

>  <prot_clashes>  (22) 
1

>  <NBS phar>  (22) 
0.2

>  <NBS_non-phar>  (22) 
0.7492329279581705

>  <NBS>  (22) 
0.9492329279581706

>  <source_stage>  (22) 
scored

>  <source_iter>  (22) 
3

>  <source_parent_mol>  (22) 
0

>  <source_scenario>  (22) 
1 0 0

>  <source_rank_in_scored_call>  (22) 
3

>  <source_current_task>  (22) 
close_aromatic_ring

>  <scenario>  (22) 
1 0 0

>  <rotatable_bond_torsions>  (22) 
0,1,3,4;1,3,4,5

>  <reason_to_skip>  (22) 
some_atom_counter_exceeded

$$$$

     RDKit          3D

  7  6  0  0  0  0  0  0  0  0999 V2000
  -27.8640   -7.4760  -31.1990 C   0  0  0  0  0  0  0  0  0  0  0  0
  -27.5380   -6.7190  -32.2850 N   0  0  0  0  0  0  0  0  0  0  0  0
  -27.6840   -8.8650  -31.2620 N   0  0  0  0  0  0  0  0  0  0  0  0
  -27.8024   -5.3830  -31.8813 C   0  0  0  0  0  0  0  0  0  0  0  0
  -28.2578   -4.8905  -30.7215 C   0  0  0  0  0  0  0  0  0  0  0  0
  -28.5614   -5.7200  -29.6646 N   0  0  0  0  0  0  0  0  0  0  0  0
  -28.2429   -6.9892  -30.2601 C   0  0  0  0  0  0  0  0  0  0  0  0
  1  2  2  3
  1  3  1  0
  2  4  1  0
  4  5  1  0
  5  6  1  0
  6  7  1  0
M  END
>  <name>  (23) 
Car Nac Nd0 Car Car Nd0 Car

>  <indices>  (23) 
[0, 1, 2]

>  <dummy>  (23) 
2

>  <tasks>  (23) 
probe_placing close_aromatic_ring close_aromatic_ring close_aromatic_ring

>  <current_task>  (23) 
close_aromatic_ring

>  <prot_clashes>  (23) 
1

>  <NBS phar>  (23) 
0.2

>  <NBS_non-phar>  (23) 
0.7492329279581705

>  <NBS>  (23) 
0.9492329279581706

>  <source_stage>  (23) 
scored

>  <source_iter>  (23) 
3

>  <source_parent_mol>  (23) 
0

>  <source_scenario>  (23) 
1 0 0

>  <source_rank_in_scored_call>  (23) 
3

>  <source_current_task>  (23) 
close_aromatic_ring

>  <scenario>  (23) 
1 0 0

>  <rotatable_bond_torsions>  (23) 
0,1,3,4;1,3,4,5

>  <reason_to_skip>  (23) 
bad angles

$$$$

     RDKit          3D

  6  5  0  0  0  0  0  0  0  0999 V2000
  -27.8640   -7.4760  -31.1990 C   0  0  0  0  0  0  0  0  0  0  0  0
  -27.5380   -6.7190  -32.2850 N   0  0  0  0  0  0  0  0  0  0  0  0
  -27.6840   -8.8650  -31.2620 N   0  0  0  0  0  0  0  0  0  0  0  0
  -27.8024   -5.3830  -31.8813 C   0  0  0  0  0  0  0  0  0  0  0  0
  -28.2367   -4.9275  -30.7486 C   0  0  0  0  0  0  0  0  0  0  0  0
  -28.4561   -3.6029  -30.4837 C   0  0  0  0  0  0  0  0  0  0  0  0
  1  2  2  3
  1  3  1  0
  2  4  1  0
  4  5  2  3
  5  6  1  0
M  END
>  <name>  (1) 
Car Nac Nd0 Car Car Car

>  <indices>  (1) 
[0, 1, 2]

>  <dummy>  (1) 
2

>  <tasks>  (1) 
probe_placing close_aromatic_ring close_aromatic_ring

>  <current_task>  (1) 
close_aromatic_ring

>  <prot_clashes>  (1) 
0

>  <NBS phar>  (1) 
0.2

>  <NBS_non-phar>  (1) 
0.8957483291625976

>  <NBS>  (1) 
1.0957483291625976

>  <source_stage>  (1) 
scored

>  <source_iter>  (1) 
2

>  <source_parent_mol>  (1) 
0

>  <source_scenario>  (1) 
1 0

>  <source_rank_in_scored_call>  (1) 
1

>  <source_current_task>  (1) 
close_aromatic_ring

>  <scenario>  (1) 
1 0

>  <rotatable_bond_torsions>  (1) 
0,1,3,4

>  <reason_to_skip>  (1) 
incorrect arom ring closing

$$$$

     RDKit          3D

  6  5  0  0  0  0  0  0  0  0999 V2000
  -27.8640   -7.4760  -31.1990 C   0  0  0  0  0  0  0  0  0  0  0  0
  -27.5380   -6.7190  -32.2850 N   0  0  0  0  0  0  0  0  0  0  0  0
  -27.6840   -8.8650  -31.2620 N   0  0  0  0  0  0  0  0  0  0  0  0
  -27.8024   -5.3830  -31.8813 C   0  0  0  0  0  0  0  0  0  0  0  0
  -28.2367   -4.9275  -30.7486 C   0  0  0  0  0  0  0  0  0  0  0  0
  -28.3462   -6.2747  -30.0645 N   0  0  0  0  0  0  0  0  0  0  0  0
  1  2  2  3
  1  3  1  0
  2  4  1  0
  4  5  2  3
  5  6  1  0
M  END
>  <name>  (2) 
Car Nac Nd0 Car Car Nac

>  <indices>  (2) 
[0, 1, 2]

>  <dummy>  (2) 
2

>  <tasks>  (2) 
probe_placing close_aromatic_ring close_aromatic_ring

>  <current_task>  (2) 
close_aromatic_ring

>  <prot_clashes>  (2) 
0

>  <NBS phar>  (2) 
0.2

>  <NBS_non-phar>  (2) 
0.8957483291625976

>  <NBS>  (2) 
1.0957483291625976

>  <source_stage>  (2) 
scored

>  <source_iter>  (2) 
2

>  <source_parent_mol>  (2) 
0

>  <source_scenario>  (2) 
1 0

>  <source_rank_in_scored_call>  (2) 
1

>  <source_current_task>  (2) 
close_aromatic_ring

>  <scenario>  (2) 
1 0

>  <rotatable_bond_torsions>  (2) 
0,1,3,4

>  <reason_to_skip>  (2) 
bad angles

$$$$

     RDKit          3D

  6  5  0  0  0  0  0  0  0  0999 V2000
  -27.8640   -7.4760  -31.1990 C   0  0  0  0  0  0  0  0  0  0  0  0
  -27.5380   -6.7190  -32.2850 N   0  0  0  0  0  0  0  0  0  0  0  0
  -27.6840   -8.8650  -31.2620 N   0  0  0  0  0  0  0  0  0  0  0  0
  -27.8024   -5.3830  -31.8813 C   0  0  0  0  0  0  0  0  0  0  0  0
  -28.2367   -4.9275  -30.7486 C   0  0  0  0  0  0  0  0  0  0  0  0
  -28.4071   -3.5336  -30.6336 N   0  0  0  0  0  0  0  0  0  0  0  0
  1  2  2  3
  1  3  1  0
  2  4  1  0
  4  5  2  3
  5  6  1  0
M  END
>  <name>  (3) 
Car Nac Nd0 Car Car Nac

>  <indices>  (3) 
[0, 1, 2]

>  <dummy>  (3) 
2

>  <tasks>  (3) 
probe_placing close_aromatic_ring close_aromatic_ring

>  <current_task>  (3) 
close_aromatic_ring

>  <prot_clashes>  (3) 
0

>  <NBS phar>  (3) 
0.2

>  <NBS_non-phar>  (3) 
0.8957483291625976

>  <NBS>  (3) 
1.0957483291625976

>  <source_stage>  (3) 
scored

>  <source_iter>  (3) 
2

>  <source_parent_mol>  (3) 
0

>  <source_scenario>  (3) 
1 0

>  <source_rank_in_scored_call>  (3) 
1

>  <source_current_task>  (3) 
close_aromatic_ring

>  <scenario>  (3) 
1 0

>  <rotatable_bond_torsions>  (3) 
0,1,3,4

>  <reason_to_skip>  (3) 
incorrect arom ring closing

$$$$

     RDKit          3D

  6  5  0  0  0  0  0  0  0  0999 V2000
  -27.8640   -7.4760  -31.1990 C   0  0  0  0  0  0  0  0  0  0  0  0
  -27.5380   -6.7190  -32.2850 N   0  0  0  0  0  0  0  0  0  0  0  0
  -27.6840   -8.8650  -31.2620 N   0  0  0  0  0  0  0  0  0  0  0  0
  -27.8024   -5.3830  -31.8813 C   0  0  0  0  0  0  0  0  0  0  0  0
  -28.2367   -4.9275  -30.7486 C   0  0  0  0  0  0  0  0  0  0  0  0
  -29.1774   -3.9116  -30.5975 C   0  0  0  0  0  0  0  0  0  0  0  0
  1  2  2  3
  1  3  1  0
  2  4  1  0
  4  5  2  3
  5  6  1  0
M  END
>  <name>  (4) 
Car Nac Nd0 Car Car Car

>  <indices>  (4) 
[0, 1, 2]

>  <dummy>  (4) 
2

>  <tasks>  (4) 
probe_placing close_aromatic_ring close_aromatic_ring

>  <current_task>  (4) 
close_aromatic_ring

>  <prot_clashes>  (4) 
0

>  <NBS phar>  (4) 
0.2

>  <NBS_non-phar>  (4) 
0.8957483291625976

>  <NBS>  (4) 
1.0957483291625976

>  <source_stage>  (4) 
scored

>  <source_iter>  (4) 
2

>  <source_parent_mol>  (4) 
0

>  <source_scenario>  (4) 
1 0

>  <source_rank_in_scored_call>  (4) 
1

>  <source_current_task>  (4) 
close_aromatic_ring

>  <scenario>  (4) 
1 0

>  <rotatable_bond_torsions>  (4) 
0,1,3,4

>  <reason_to_skip>  (4) 
incorrect arom ring closing

$$$$

     RDKit          3D

  6  5  0  0  0  0  0  0  0  0999 V2000
  -27.8640   -7.4760  -31.1990 C   0  0  0  0  0  0  0  0  0  0  0  0
  -27.5380   -6.7190  -32.2850 N   0  0  0  0  0  0  0  0  0  0  0  0
  -27.6840   -8.8650  -31.2620 N   0  0  0  0  0  0  0  0  0  0  0  0
  -27.8024   -5.3830  -31.8813 C   0  0  0  0  0  0  0  0  0  0  0  0
  -28.2367   -4.9275  -30.7486 C   0  0  0  0  0  0  0  0  0  0  0  0
  -29.0645   -3.7724  -30.6059 C   0  0  0  0  0  0  0  0  0  0  0  0
  1  2  2  3
  1  3  1  0
  2  4  1  0
  4  5  2  3
  5  6  1  0
M  END
>  <name>  (5) 
Car Nac Nd0 Car Car Car

>  <indices>  (5) 
[0, 1, 2]

>  <dummy>  (5) 
2

>  <tasks>  (5) 
probe_placing close_aromatic_ring close_aromatic_ring

>  <current_task>  (5) 
close_aromatic_ring

>  <prot_clashes>  (5) 
0

>  <NBS phar>  (5) 
0.2

>  <NBS_non-phar>  (5) 
0.8957483291625976

>  <NBS>  (5) 
1.0957483291625976

>  <source_stage>  (5) 
scored

>  <source_iter>  (5) 
2

>  <source_parent_mol>  (5) 
0

>  <source_scenario>  (5) 
1 0

>  <source_rank_in_scored_call>  (5) 
1

>  <source_current_task>  (5) 
close_aromatic_ring

>  <scenario>  (5) 
1 0

>  <rotatable_bond_torsions>  (5) 
0,1,3,4

>  <reason_to_skip>  (5) 
incorrect arom ring closing

$$$$

     RDKit          3D

  6  5  0  0  0  0  0  0  0  0999 V2000
  -27.8640   -7.4760  -31.1990 C   0  0  0  0  0  0  0  0  0  0  0  0
  -27.5380   -6.7190  -32.2850 N   0  0  0  0  0  0  0  0  0  0  0  0
  -27.6840   -8.8650  -31.2620 N   0  0  0  0  0  0  0  0  0  0  0  0
  -27.8024   -5.3830  -31.8813 C   0  0  0  0  0  0  0  0  0  0  0  0
  -28.2367   -4.9275  -30.7486 C   0  0  0  0  0  0  0  0  0  0  0  0
  -28.5133   -3.8350  -30.1467 N   0  0  0  0  0  0  0  0  0  0  0  0
  1  2  2  3
  1  3  1  0
  2  4  1  0
  4  5  2  3
  5  6  1  0
M  END
>  <name>  (6) 
Car Nac Nd0 Car Car Nd0

>  <indices>  (6) 
[0, 1, 2]

>  <dummy>  (6) 
2

>  <tasks>  (6) 
probe_placing close_aromatic_ring close_aromatic_ring

>  <current_task>  (6) 
close_aromatic_ring

>  <prot_clashes>  (6) 
0

>  <NBS phar>  (6) 
0.2

>  <NBS_non-phar>  (6) 
0.8957483291625976

>  <NBS>  (6) 
1.0957483291625976

>  <source_stage>  (6) 
scored

>  <source_iter>  (6) 
2

>  <source_parent_mol>  (6) 
0

>  <source_scenario>  (6) 
1 0

>  <source_rank_in_scored_call>  (6) 
1

>  <source_current_task>  (6) 
close_aromatic_ring

>  <scenario>  (6) 
1 0

>  <rotatable_bond_torsions>  (6) 
0,1,3,4

>  <reason_to_skip>  (6) 
bad angles

$$$$

     RDKit          3D

  6  5  0  0  0  0  0  0  0  0999 V2000
  -27.8640   -7.4760  -31.1990 C   0  0  0  0  0  0  0  0  0  0  0  0
  -27.5380   -6.7190  -32.2850 N   0  0  0  0  0  0  0  0  0  0  0  0
  -27.6840   -8.8650  -31.2620 N   0  0  0  0  0  0  0  0  0  0  0  0
  -27.8024   -5.3830  -31.8813 C   0  0  0  0  0  0  0  0  0  0  0  0
  -28.2367   -4.9275  -30.7486 C   0  0  0  0  0  0  0  0  0  0  0  0
  -28.3237   -6.2692  -30.1162 N   0  0  0  0  0  0  0  0  0  0  0  0
  1  2  2  3
  1  3  1  0
  2  4  1  0
  4  5  2  3
  5  6  1  0
M  END
>  <name>  (7) 
Car Nac Nd0 Car Car Nac

>  <indices>  (7) 
[0, 1, 2]

>  <dummy>  (7) 
2

>  <tasks>  (7) 
probe_placing close_aromatic_ring close_aromatic_ring

>  <current_task>  (7) 
close_aromatic_ring

>  <prot_clashes>  (7) 
0

>  <NBS phar>  (7) 
0.2

>  <NBS_non-phar>  (7) 
0.8957483291625976

>  <NBS>  (7) 
1.0957483291625976

>  <source_stage>  (7) 
scored

>  <source_iter>  (7) 
2

>  <source_parent_mol>  (7) 
0

>  <source_scenario>  (7) 
1 0

>  <source_rank_in_scored_call>  (7) 
1

>  <source_current_task>  (7) 
close_aromatic_ring

>  <scenario>  (7) 
1 0

>  <rotatable_bond_torsions>  (7) 
0,1,3,4

>  <reason_to_skip>  (7) 
bad angles

$$$$

     RDKit          3D

  6  5  0  0  0  0  0  0  0  0999 V2000
  -27.8640   -7.4760  -31.1990 C   0  0  0  0  0  0  0  0  0  0  0  0
  -27.5380   -6.7190  -32.2850 N   0  0  0  0  0  0  0  0  0  0  0  0
  -27.6840   -8.8650  -31.2620 N   0  0  0  0  0  0  0  0  0  0  0  0
  -27.8024   -5.3830  -31.8813 C   0  0  0  0  0  0  0  0  0  0  0  0
  -28.2367   -4.9275  -30.7486 C   0  0  0  0  0  0  0  0  0  0  0  0
  -28.3664   -6.2209  -30.0610 N   0  0  0  0  0  0  0  0  0  0  0  0
  1  2  2  3
  1  3  1  0
  2  4  1  0
  4  5  2  3
  5  6  1  0
M  END
>  <name>  (8) 
Car Nac Nd0 Car Car Nd0

>  <indices>  (8) 
[0, 1, 2]

>  <dummy>  (8) 
2

>  <tasks>  (8) 
probe_placing close_aromatic_ring close_aromatic_ring

>  <current_task>  (8) 
close_aromatic_ring

>  <prot_clashes>  (8) 
0

>  <NBS phar>  (8) 
0.2

>  <NBS_non-phar>  (8) 
0.8957483291625976

>  <NBS>  (8) 
1.0957483291625976

>  <source_stage>  (8) 
scored

>  <source_iter>  (8) 
2

>  <source_parent_mol>  (8) 
0

>  <source_scenario>  (8) 
1 0

>  <source_rank_in_scored_call>  (8) 
1

>  <source_current_task>  (8) 
close_aromatic_ring

>  <scenario>  (8) 
1 0

>  <rotatable_bond_torsions>  (8) 
0,1,3,4

>  <reason_to_skip>  (8) 
bad angles

$$$$

     RDKit          3D

  6  5  0  0  0  0  0  0  0  0999 V2000
  -27.8640   -7.4760  -31.1990 C   0  0  0  0  0  0  0  0  0  0  0  0
  -27.5380   -6.7190  -32.2850 N   0  0  0  0  0  0  0  0  0  0  0  0
  -27.6840   -8.8650  -31.2620 N   0  0  0  0  0  0  0  0  0  0  0  0
  -27.8024   -5.3830  -31.8813 C   0  0  0  0  0  0  0  0  0  0  0  0
  -28.2367   -4.9275  -30.7486 C   0  0  0  0  0  0  0  0  0  0  0  0
    0.0000    0.0000    0.0000 O   0  0  0  0  0  0  0  0  0  0  0  0
  1  2  2  3
  1  3  1  0
  2  4  1  0
  4  5  2  3
  5  6  1  0
M  END
>  <name>  (9) 
Car Nac Nd0 Car Car O_a

>  <indices>  (9) 
[0, 1, 2]

>  <dummy>  (9) 
2

>  <tasks>  (9) 
probe_placing close_aromatic_ring close_aromatic_ring

>  <current_task>  (9) 
close_aromatic_ring

>  <prot_clashes>  (9) 
0

>  <NBS phar>  (9) 
0.2

>  <NBS_non-phar>  (9) 
0.8957483291625976

>  <NBS>  (9) 
1.0957483291625976

>  <source_stage>  (9) 
scored

>  <source_iter>  (9) 
2

>  <source_parent_mol>  (9) 
0

>  <source_scenario>  (9) 
1 0

>  <source_rank_in_scored_call>  (9) 
1

>  <source_current_task>  (9) 
close_aromatic_ring

>  <scenario>  (9) 
1 0

>  <rotatable_bond_torsions>  (9) 
0,1,3,4

>  <reason_to_skip>  (9) 
some_atom_counter_exceeded

$$$$

     RDKit          3D

  6  5  0  0  0  0  0  0  0  0999 V2000
  -27.8640   -7.4760  -31.1990 C   0  0  0  0  0  0  0  0  0  0  0  0
  -27.5380   -6.7190  -32.2850 N   0  0  0  0  0  0  0  0  0  0  0  0
  -27.6840   -8.8650  -31.2620 N   0  0  0  0  0  0  0  0  0  0  0  0
  -27.8024   -5.3830  -31.8813 C   0  0  0  0  0  0  0  0  0  0  0  0
  -28.2367   -4.9275  -30.7486 C   0  0  0  0  0  0  0  0  0  0  0  0
  -28.3647   -6.2732  -30.1064 C   0  0  0  0  0  0  0  0  0  0  0  0
  1  2  2  3
  1  3  1  0
  2  4  1  0
  4  5  2  3
  5  6  1  0
M  END
>  <name>  (10) 
Car Nac Nd0 Car Car Car

>  <indices>  (10) 
[0, 1, 2]

>  <dummy>  (10) 
2

>  <tasks>  (10) 
probe_placing close_aromatic_ring close_aromatic_ring

>  <current_task>  (10) 
close_aromatic_ring

>  <prot_clashes>  (10) 
0

>  <NBS phar>  (10) 
0.2

>  <NBS_non-phar>  (10) 
0.8957483291625976

>  <NBS>  (10) 
1.0957483291625976

>  <source_stage>  (10) 
scored

>  <source_iter>  (10) 
2

>  <source_parent_mol>  (10) 
0

>  <source_scenario>  (10) 
1 0

>  <source_rank_in_scored_call>  (10) 
1

>  <source_current_task>  (10) 
close_aromatic_ring

>  <scenario>  (10) 
1 0

>  <rotatable_bond_torsions>  (10) 
0,1,3,4

>  <reason_to_skip>  (10) 
bad angles

$$$$

     RDKit          3D

  6  5  0  0  0  0  0  0  0  0999 V2000
  -27.8640   -7.4760  -31.1990 C   0  0  0  0  0  0  0  0  0  0  0  0
  -27.5380   -6.7190  -32.2850 N   0  0  0  0  0  0  0  0  0  0  0  0
  -27.6840   -8.8650  -31.2620 N   0  0  0  0  0  0  0  0  0  0  0  0
  -27.8024   -5.3830  -31.8813 C   0  0  0  0  0  0  0  0  0  0  0  0
  -28.2367   -4.9275  -30.7486 C   0  0  0  0  0  0  0  0  0  0  0  0
    0.0000    0.0000    0.0000 S   0  0  0  0  0  0  0  0  0  0  0  0
  1  2  2  3
  1  3  1  0
  2  4  1  0
  4  5  2  3
  5  6  1  0
M  END
>  <name>  (11) 
Car Nac Nd0 Car Car Sul

>  <indices>  (11) 
[0, 1, 2]

>  <dummy>  (11) 
2

>  <tasks>  (11) 
probe_placing close_aromatic_ring close_aromatic_ring

>  <current_task>  (11) 
close_aromatic_ring

>  <prot_clashes>  (11) 
0

>  <NBS phar>  (11) 
0.2

>  <NBS_non-phar>  (11) 
0.8957483291625976

>  <NBS>  (11) 
1.0957483291625976

>  <source_stage>  (11) 
scored

>  <source_iter>  (11) 
2

>  <source_parent_mol>  (11) 
0

>  <source_scenario>  (11) 
1 0

>  <source_rank_in_scored_call>  (11) 
1

>  <source_current_task>  (11) 
close_aromatic_ring

>  <scenario>  (11) 
1 0

>  <rotatable_bond_torsions>  (11) 
0,1,3,4

>  <reason_to_skip>  (11) 
some_atom_counter_exceeded

$$$$

     RDKit          3D

  6  5  0  0  0  0  0  0  0  0999 V2000
  -27.8640   -7.4760  -31.1990 C   0  0  0  0  0  0  0  0  0  0  0  0
  -27.5380   -6.7190  -32.2850 N   0  0  0  0  0  0  0  0  0  0  0  0
  -27.6840   -8.8650  -31.2620 N   0  0  0  0  0  0  0  0  0  0  0  0
  -27.8024   -5.3830  -31.8813 C   0  0  0  0  0  0  0  0  0  0  0  0
  -28.2367   -4.9275  -30.7486 C   0  0  0  0  0  0  0  0  0  0  0  0
  -27.5491   -4.1819  -29.7210 C   0  0  0  0  0  0  0  0  0  0  0  0
  1  2  2  3
  1  3  1  0
  2  4  1  0
  4  5  2  3
  5  6  1  0
M  END
>  <name>  (12) 
Car Nac Nd0 Car Car Car

>  <indices>  (12) 
[0, 1, 2]

>  <dummy>  (12) 
2

>  <tasks>  (12) 
probe_placing close_aromatic_ring close_aromatic_ring

>  <current_task>  (12) 
close_aromatic_ring

>  <prot_clashes>  (12) 
0

>  <NBS phar>  (12) 
0.2

>  <NBS_non-phar>  (12) 
0.8957483291625976

>  <NBS>  (12) 
1.0957483291625976

>  <source_stage>  (12) 
scored

>  <source_iter>  (12) 
2

>  <source_parent_mol>  (12) 
0

>  <source_scenario>  (12) 
1 0

>  <source_rank_in_scored_call>  (12) 
1

>  <source_current_task>  (12) 
close_aromatic_ring

>  <scenario>  (12) 
1 0

>  <rotatable_bond_torsions>  (12) 
0,1,3,4

>  <reason_to_skip>  (12) 
incorrect arom ring closing

$$$$

     RDKit          3D

  6  5  0  0  0  0  0  0  0  0999 V2000
  -27.8640   -7.4760  -31.1990 C   0  0  0  0  0  0  0  0  0  0  0  0
  -27.5380   -6.7190  -32.2850 N   0  0  0  0  0  0  0  0  0  0  0  0
  -27.6840   -8.8650  -31.2620 N   0  0  0  0  0  0  0  0  0  0  0  0
  -27.8024   -5.3830  -31.8813 C   0  0  0  0  0  0  0  0  0  0  0  0
  -28.2367   -4.9275  -30.7486 C   0  0  0  0  0  0  0  0  0  0  0  0
  -29.5391   -5.0959  -30.1474 C   0  0  0  0  0  0  0  0  0  0  0  0
  1  2  2  3
  1  3  1  0
  2  4  1  0
  4  5  2  3
  5  6  1  0
M  END
>  <name>  (13) 
Car Nac Nd0 Car Car Car

>  <indices>  (13) 
[0, 1, 2]

>  <dummy>  (13) 
2

>  <tasks>  (13) 
probe_placing close_aromatic_ring close_aromatic_ring

>  <current_task>  (13) 
close_aromatic_ring

>  <prot_clashes>  (13) 
0

>  <NBS phar>  (13) 
0.2

>  <NBS_non-phar>  (13) 
0.8957483291625976

>  <NBS>  (13) 
1.0957483291625976

>  <source_stage>  (13) 
scored

>  <source_iter>  (13) 
2

>  <source_parent_mol>  (13) 
0

>  <source_scenario>  (13) 
1 0

>  <source_rank_in_scored_call>  (13) 
1

>  <source_current_task>  (13) 
close_aromatic_ring

>  <scenario>  (13) 
1 0

>  <rotatable_bond_torsions>  (13) 
0,1,3,4

>  <reason_to_skip>  (13) 
incorrect arom ring closing

$$$$

     RDKit          3D

  6  5  0  0  0  0  0  0  0  0999 V2000
  -27.8640   -7.4760  -31.1990 C   0  0  0  0  0  0  0  0  0  0  0  0
  -27.5380   -6.7190  -32.2850 N   0  0  0  0  0  0  0  0  0  0  0  0
  -27.6840   -8.8650  -31.2620 N   0  0  0  0  0  0  0  0  0  0  0  0
  -27.8024   -5.3830  -31.8813 C   0  0  0  0  0  0  0  0  0  0  0  0
  -28.2367   -4.9275  -30.7486 C   0  0  0  0  0  0  0  0  0  0  0  0
    0.0000    0.0000    0.0000 O   0  0  0  0  0  0  0  0  0  0  0  0
  1  2  2  3
  1  3  1  0
  2  4  1  0
  4  5  2  3
  5  6  1  0
M  END
>  <name>  (14) 
Car Nac Nd0 Car Car O_a

>  <indices>  (14) 
[0, 1, 2]

>  <dummy>  (14) 
2

>  <tasks>  (14) 
probe_placing close_aromatic_ring close_aromatic_ring

>  <current_task>  (14) 
close_aromatic_ring

>  <prot_clashes>  (14) 
0

>  <NBS phar>  (14) 
0.2

>  <NBS_non-phar>  (14) 
0.8957483291625976

>  <NBS>  (14) 
1.0957483291625976

>  <source_stage>  (14) 
scored

>  <source_iter>  (14) 
2

>  <source_parent_mol>  (14) 
0

>  <source_scenario>  (14) 
1 0

>  <source_rank_in_scored_call>  (14) 
1

>  <source_current_task>  (14) 
close_aromatic_ring

>  <scenario>  (14) 
1 0

>  <rotatable_bond_torsions>  (14) 
0,1,3,4

>  <reason_to_skip>  (14) 
some_atom_counter_exceeded

$$$$

     RDKit          3D

  6  5  0  0  0  0  0  0  0  0999 V2000
  -27.8640   -7.4760  -31.1990 C   0  0  0  0  0  0  0  0  0  0  0  0
  -27.5380   -6.7190  -32.2850 N   0  0  0  0  0  0  0  0  0  0  0  0
  -27.6840   -8.8650  -31.2620 N   0  0  0  0  0  0  0  0  0  0  0  0
  -27.8024   -5.3830  -31.8813 C   0  0  0  0  0  0  0  0  0  0  0  0
  -28.2367   -4.9275  -30.7486 C   0  0  0  0  0  0  0  0  0  0  0  0
  -28.5520   -3.7640  -30.1859 N   0  0  0  0  0  0  0  0  0  0  0  0
  1  2  2  3
  1  3  1  0
  2  4  1  0
  4  5  2  3
  5  6  1  0
M  END
>  <name>  (15) 
Car Nac Nd0 Car Car Nd0

>  <indices>  (15) 
[0, 1, 2]

>  <dummy>  (15) 
2

>  <tasks>  (15) 
probe_placing close_aromatic_ring close_aromatic_ring

>  <current_task>  (15) 
close_aromatic_ring

>  <prot_clashes>  (15) 
0

>  <NBS phar>  (15) 
0.2

>  <NBS_non-phar>  (15) 
0.8957483291625976

>  <NBS>  (15) 
1.0957483291625976

>  <source_stage>  (15) 
scored

>  <source_iter>  (15) 
2

>  <source_parent_mol>  (15) 
0

>  <source_scenario>  (15) 
1 0

>  <source_rank_in_scored_call>  (15) 
1

>  <source_current_task>  (15) 
close_aromatic_ring

>  <scenario>  (15) 
1 0

>  <rotatable_bond_torsions>  (15) 
0,1,3,4

>  <reason_to_skip>  (15) 
bad angles

$$$$

     RDKit          3D

  6  5  0  0  0  0  0  0  0  0999 V2000
  -27.8640   -7.4760  -31.1990 C   0  0  0  0  0  0  0  0  0  0  0  0
  -27.5380   -6.7190  -32.2850 N   0  0  0  0  0  0  0  0  0  0  0  0
  -27.6840   -8.8650  -31.2620 N   0  0  0  0  0  0  0  0  0  0  0  0
  -27.8024   -5.3830  -31.8813 C   0  0  0  0  0  0  0  0  0  0  0  0
  -28.2367   -4.9275  -30.7486 C   0  0  0  0  0  0  0  0  0  0  0  0
  -27.9800   -3.7024  -30.1704 C   0  0  0  0  0  0  0  0  0  0  0  0
  1  2  2  3
  1  3  1  0
  2  4  1  0
  4  5  2  3
  5  6  1  0
M  END
>  <name>  (16) 
Car Nac Nd0 Car Car Car

>  <indices>  (16) 
[0, 1, 2]

>  <dummy>  (16) 
2

>  <tasks>  (16) 
probe_placing close_aromatic_ring close_aromatic_ring

>  <current_task>  (16) 
close_aromatic_ring

>  <prot_clashes>  (16) 
0

>  <NBS phar>  (16) 
0.2

>  <NBS_non-phar>  (16) 
0.8957483291625976

>  <NBS>  (16) 
1.0957483291625976

>  <source_stage>  (16) 
scored

>  <source_iter>  (16) 
2

>  <source_parent_mol>  (16) 
0

>  <source_scenario>  (16) 
1 0

>  <source_rank_in_scored_call>  (16) 
1

>  <source_current_task>  (16) 
close_aromatic_ring

>  <scenario>  (16) 
1 0

>  <rotatable_bond_torsions>  (16) 
0,1,3,4

>  <reason_to_skip>  (16) 
incorrect arom ring closing

$$$$

     RDKit          3D

  6  5  0  0  0  0  0  0  0  0999 V2000
  -27.8640   -7.4760  -31.1990 C   0  0  0  0  0  0  0  0  0  0  0  0
  -27.5380   -6.7190  -32.2850 N   0  0  0  0  0  0  0  0  0  0  0  0
  -27.6840   -8.8650  -31.2620 N   0  0  0  0  0  0  0  0  0  0  0  0
  -27.8024   -5.3830  -31.8813 C   0  0  0  0  0  0  0  0  0  0  0  0
  -28.2367   -4.9275  -30.7486 C   0  0  0  0  0  0  0  0  0  0  0  0
    0.0000    0.0000    0.0000 O   0  0  0  0  0  0  0  0  0  0  0  0
  1  2  2  3
  1  3  1  0
  2  4  1  0
  4  5  2  3
  5  6  1  0
M  END
>  <name>  (17) 
Car Nac Nd0 Car Car O_a

>  <indices>  (17) 
[0, 1, 2]

>  <dummy>  (17) 
2

>  <tasks>  (17) 
probe_placing close_aromatic_ring close_aromatic_ring

>  <current_task>  (17) 
close_aromatic_ring

>  <prot_clashes>  (17) 
0

>  <NBS phar>  (17) 
0.2

>  <NBS_non-phar>  (17) 
0.8957483291625976

>  <NBS>  (17) 
1.0957483291625976

>  <source_stage>  (17) 
scored

>  <source_iter>  (17) 
2

>  <source_parent_mol>  (17) 
0

>  <source_scenario>  (17) 
1 0

>  <source_rank_in_scored_call>  (17) 
1

>  <source_current_task>  (17) 
close_aromatic_ring

>  <scenario>  (17) 
1 0

>  <rotatable_bond_torsions>  (17) 
0,1,3,4

>  <reason_to_skip>  (17) 
some_atom_counter_exceeded

$$$$

     RDKit          3D

  6  5  0  0  0  0  0  0  0  0999 V2000
  -27.8640   -7.4760  -31.1990 C   0  0  0  0  0  0  0  0  0  0  0  0
  -27.5380   -6.7190  -32.2850 N   0  0  0  0  0  0  0  0  0  0  0  0
  -27.6840   -8.8650  -31.2620 N   0  0  0  0  0  0  0  0  0  0  0  0
  -27.8024   -5.3830  -31.8813 C   0  0  0  0  0  0  0  0  0  0  0  0
  -28.2367   -4.9275  -30.7486 C   0  0  0  0  0  0  0  0  0  0  0  0
  -28.4510   -3.6463  -30.4382 N   0  0  0  0  0  0  0  0  0  0  0  0
  1  2  2  3
  1  3  1  0
  2  4  1  0
  4  5  2  3
  5  6  1  0
M  END
>  <name>  (18) 
Car Nac Nd0 Car Car Nd0

>  <indices>  (18) 
[0, 1, 2]

>  <dummy>  (18) 
2

>  <tasks>  (18) 
probe_placing close_aromatic_ring close_aromatic_ring

>  <current_task>  (18) 
close_aromatic_ring

>  <prot_clashes>  (18) 
0

>  <NBS phar>  (18) 
0.2

>  <NBS_non-phar>  (18) 
0.8957483291625976

>  <NBS>  (18) 
1.0957483291625976

>  <source_stage>  (18) 
scored

>  <source_iter>  (18) 
2

>  <source_parent_mol>  (18) 
0

>  <source_scenario>  (18) 
1 0

>  <source_rank_in_scored_call>  (18) 
1

>  <source_current_task>  (18) 
close_aromatic_ring

>  <scenario>  (18) 
1 0

>  <rotatable_bond_torsions>  (18) 
0,1,3,4

>  <reason_to_skip>  (18) 
incorrect arom ring closing

$$$$

     RDKit          3D

  6  5  0  0  0  0  0  0  0  0999 V2000
  -27.8640   -7.4760  -31.1990 C   0  0  0  0  0  0  0  0  0  0  0  0
  -27.5380   -6.7190  -32.2850 N   0  0  0  0  0  0  0  0  0  0  0  0
  -27.6840   -8.8650  -31.2620 N   0  0  0  0  0  0  0  0  0  0  0  0
  -27.8024   -5.3830  -31.8813 C   0  0  0  0  0  0  0  0  0  0  0  0
  -28.2367   -4.9275  -30.7486 C   0  0  0  0  0  0  0  0  0  0  0  0
    0.0000    0.0000    0.0000 O   0  0  0  0  0  0  0  0  0  0  0  0
  1  2  2  3
  1  3  1  0
  2  4  1  0
  4  5  2  3
  5  6  1  0
M  END
>  <name>  (19) 
Car Nac Nd0 Car Car O_a

>  <indices>  (19) 
[0, 1, 2]

>  <dummy>  (19) 
2

>  <tasks>  (19) 
probe_placing close_aromatic_ring close_aromatic_ring

>  <current_task>  (19) 
close_aromatic_ring

>  <prot_clashes>  (19) 
0

>  <NBS phar>  (19) 
0.2

>  <NBS_non-phar>  (19) 
0.8957483291625976

>  <NBS>  (19) 
1.0957483291625976

>  <source_stage>  (19) 
scored

>  <source_iter>  (19) 
2

>  <source_parent_mol>  (19) 
0

>  <source_scenario>  (19) 
1 0

>  <source_rank_in_scored_call>  (19) 
1

>  <source_current_task>  (19) 
close_aromatic_ring

>  <scenario>  (19) 
1 0

>  <rotatable_bond_torsions>  (19) 
0,1,3,4

>  <reason_to_skip>  (19) 
some_atom_counter_exceeded

$$$$

     RDKit          3D

  6  5  0  0  0  0  0  0  0  0999 V2000
  -27.8640   -7.4760  -31.1990 C   0  0  0  0  0  0  0  0  0  0  0  0
  -27.5380   -6.7190  -32.2850 N   0  0  0  0  0  0  0  0  0  0  0  0
  -27.6840   -8.8650  -31.2620 N   0  0  0  0  0  0  0  0  0  0  0  0
  -27.8024   -5.3830  -31.8813 C   0  0  0  0  0  0  0  0  0  0  0  0
  -28.2367   -4.9275  -30.7486 C   0  0  0  0  0  0  0  0  0  0  0  0
    0.0000    0.0000    0.0000 O   0  0  0  0  0  0  0  0  0  0  0  0
  1  2  2  3
  1  3  1  0
  2  4  1  0
  4  5  2  3
  5  6  1  0
M  END
>  <name>  (20) 
Car Nac Nd0 Car Car O_a

>  <indices>  (20) 
[0, 1, 2]

>  <dummy>  (20) 
2

>  <tasks>  (20) 
probe_placing close_aromatic_ring close_aromatic_ring

>  <current_task>  (20) 
close_aromatic_ring

>  <prot_clashes>  (20) 
0

>  <NBS phar>  (20) 
0.2

>  <NBS_non-phar>  (20) 
0.8957483291625976

>  <NBS>  (20) 
1.0957483291625976

>  <source_stage>  (20) 
scored

>  <source_iter>  (20) 
2

>  <source_parent_mol>  (20) 
0

>  <source_scenario>  (20) 
1 0

>  <source_rank_in_scored_call>  (20) 
1

>  <source_current_task>  (20) 
close_aromatic_ring

>  <scenario>  (20) 
1 0

>  <rotatable_bond_torsions>  (20) 
0,1,3,4

>  <reason_to_skip>  (20) 
some_atom_counter_exceeded

$$$$

     RDKit          3D

  6  5  0  0  0  0  0  0  0  0999 V2000
  -27.8640   -7.4760  -31.1990 C   0  0  0  0  0  0  0  0  0  0  0  0
  -27.5380   -6.7190  -32.2850 N   0  0  0  0  0  0  0  0  0  0  0  0
  -27.6840   -8.8650  -31.2620 N   0  0  0  0  0  0  0  0  0  0  0  0
  -27.8024   -5.3830  -31.8813 C   0  0  0  0  0  0  0  0  0  0  0  0
  -28.2367   -4.9275  -30.7486 C   0  0  0  0  0  0  0  0  0  0  0  0
  -28.6886   -3.7231  -30.4051 N   0  0  0  0  0  0  0  0  0  0  0  0
  1  2  2  3
  1  3  1  0
  2  4  1  0
  4  5  2  3
  5  6  1  0
M  END
>  <name>  (21) 
Car Nac Nd0 Car Car Nac

>  <indices>  (21) 
[0, 1, 2]

>  <dummy>  (21) 
2

>  <tasks>  (21) 
probe_placing close_aromatic_ring close_aromatic_ring

>  <current_task>  (21) 
close_aromatic_ring

>  <prot_clashes>  (21) 
0

>  <NBS phar>  (21) 
0.2

>  <NBS_non-phar>  (21) 
0.8957483291625976

>  <NBS>  (21) 
1.0957483291625976

>  <source_stage>  (21) 
scored

>  <source_iter>  (21) 
2

>  <source_parent_mol>  (21) 
0

>  <source_scenario>  (21) 
1 0

>  <source_rank_in_scored_call>  (21) 
1

>  <source_current_task>  (21) 
close_aromatic_ring

>  <scenario>  (21) 
1 0

>  <rotatable_bond_torsions>  (21) 
0,1,3,4

>  <reason_to_skip>  (21) 
incorrect arom ring closing

$$$$

     RDKit          3D

  6  5  0  0  0  0  0  0  0  0999 V2000
  -27.8640   -7.4760  -31.1990 C   0  0  0  0  0  0  0  0  0  0  0  0
  -27.5380   -6.7190  -32.2850 N   0  0  0  0  0  0  0  0  0  0  0  0
  -27.6840   -8.8650  -31.2620 N   0  0  0  0  0  0  0  0  0  0  0  0
  -27.8024   -5.3830  -31.8813 C   0  0  0  0  0  0  0  0  0  0  0  0
  -28.2367   -4.9275  -30.7486 C   0  0  0  0  0  0  0  0  0  0  0  0
  -29.5431   -4.5356  -30.4132 N   0  0  0  0  0  0  0  0  0  0  0  0
  1  2  2  3
  1  3  1  0
  2  4  1  0
  4  5  2  3
  5  6  1  0
M  END
>  <name>  (22) 
Car Nac Nd0 Car Car Nac

>  <indices>  (22) 
[0, 1, 2]

>  <dummy>  (22) 
2

>  <tasks>  (22) 
probe_placing close_aromatic_ring close_aromatic_ring

>  <current_task>  (22) 
close_aromatic_ring

>  <prot_clashes>  (22) 
0

>  <NBS phar>  (22) 
0.2

>  <NBS_non-phar>  (22) 
0.8957483291625976

>  <NBS>  (22) 
1.0957483291625976

>  <source_stage>  (22) 
scored

>  <source_iter>  (22) 
2

>  <source_parent_mol>  (22) 
0

>  <source_scenario>  (22) 
1 0

>  <source_rank_in_scored_call>  (22) 
1

>  <source_current_task>  (22) 
close_aromatic_ring

>  <scenario>  (22) 
1 0

>  <rotatable_bond_torsions>  (22) 
0,1,3,4

>  <reason_to_skip>  (22) 
incorrect arom ring closing

$$$$

     RDKit          3D

  6  5  0  0  0  0  0  0  0  0999 V2000
  -27.8640   -7.4760  -31.1990 C   0  0  0  0  0  0  0  0  0  0  0  0
  -27.5380   -6.7190  -32.2850 N   0  0  0  0  0  0  0  0  0  0  0  0
  -27.6840   -8.8650  -31.2620 N   0  0  0  0  0  0  0  0  0  0  0  0
  -27.8024   -5.3830  -31.8813 C   0  0  0  0  0  0  0  0  0  0  0  0
  -28.2367   -4.9275  -30.7486 C   0  0  0  0  0  0  0  0  0  0  0  0
    0.0000    0.0000    0.0000 S   0  0  0  0  0  0  0  0  0  0  0  0
  1  2  2  3
  1  3  1  0
  2  4  1  0
  4  5  2  3
  5  6  1  0
M  END
>  <name>  (23) 
Car Nac Nd0 Car Car Sul

>  <indices>  (23) 
[0, 1, 2]

>  <dummy>  (23) 
2

>  <tasks>  (23) 
probe_placing close_aromatic_ring close_aromatic_ring

>  <current_task>  (23) 
close_aromatic_ring

>  <prot_clashes>  (23) 
0

>  <NBS phar>  (23) 
0.2

>  <NBS_non-phar>  (23) 
0.8957483291625976

>  <NBS>  (23) 
1.0957483291625976

>  <source_stage>  (23) 
scored

>  <source_iter>  (23) 
2

>  <source_parent_mol>  (23) 
0

>  <source_scenario>  (23) 
1 0

>  <source_rank_in_scored_call>  (23) 
1

>  <source_current_task>  (23) 
close_aromatic_ring

>  <scenario>  (23) 
1 0

>  <rotatable_bond_torsions>  (23) 
0,1,3,4

>  <reason_to_skip>  (23) 
some_atom_counter_exceeded

$$$$

     RDKit          3D

  6  5  0  0  0  0  0  0  0  0999 V2000
  -27.8640   -7.4760  -31.1990 C   0  0  0  0  0  0  0  0  0  0  0  0
  -27.5380   -6.7190  -32.2850 N   0  0  0  0  0  0  0  0  0  0  0  0
  -27.6840   -8.8650  -31.2620 N   0  0  0  0  0  0  0  0  0  0  0  0
  -27.8024   -5.3830  -31.8813 C   0  0  0  0  0  0  0  0  0  0  0  0
  -28.2367   -4.9275  -30.7486 C   0  0  0  0  0  0  0  0  0  0  0  0
    0.0000    0.0000    0.0000 S   0  0  0  0  0  0  0  0  0  0  0  0
  1  2  2  3
  1  3  1  0
  2  4  1  0
  4  5  2  3
  5  6  1  0
M  END
>  <name>  (24) 
Car Nac Nd0 Car Car Sul

>  <indices>  (24) 
[0, 1, 2]

>  <dummy>  (24) 
2

>  <tasks>  (24) 
probe_placing close_aromatic_ring close_aromatic_ring

>  <current_task>  (24) 
close_aromatic_ring

>  <prot_clashes>  (24) 
0

>  <NBS phar>  (24) 
0.2

>  <NBS_non-phar>  (24) 
0.8957483291625976

>  <NBS>  (24) 
1.0957483291625976

>  <source_stage>  (24) 
scored

>  <source_iter>  (24) 
2

>  <source_parent_mol>  (24) 
0

>  <source_scenario>  (24) 
1 0

>  <source_rank_in_scored_call>  (24) 
1

>  <source_current_task>  (24) 
close_aromatic_ring

>  <scenario>  (24) 
1 0

>  <rotatable_bond_torsions>  (24) 
0,1,3,4

>  <reason_to_skip>  (24) 
some_atom_counter_exceeded

$$$$

     RDKit          3D

  6  5  0  0  0  0  0  0  0  0999 V2000
  -27.8640   -7.4760  -31.1990 C   0  0  0  0  0  0  0  0  0  0  0  0
  -27.5380   -6.7190  -32.2850 N   0  0  0  0  0  0  0  0  0  0  0  0
  -27.6840   -8.8650  -31.2620 N   0  0  0  0  0  0  0  0  0  0  0  0
  -27.8024   -5.3830  -31.8813 C   0  0  0  0  0  0  0  0  0  0  0  0
  -28.2367   -4.9275  -30.7486 C   0  0  0  0  0  0  0  0  0  0  0  0
    0.0000    0.0000    0.0000 O   0  0  0  0  0  0  0  0  0  0  0  0
  1  2  2  3
  1  3  1  0
  2  4  1  0
  4  5  2  3
  5  6  1  0
M  END
>  <name>  (25) 
Car Nac Nd0 Car Car O_a

>  <indices>  (25) 
[0, 1, 2]

>  <dummy>  (25) 
2

>  <tasks>  (25) 
probe_placing close_aromatic_ring close_aromatic_ring

>  <current_task>  (25) 
close_aromatic_ring

>  <prot_clashes>  (25) 
0

>  <NBS phar>  (25) 
0.2

>  <NBS_non-phar>  (25) 
0.8957483291625976

>  <NBS>  (25) 
1.0957483291625976

>  <source_stage>  (25) 
scored

>  <source_iter>  (25) 
2

>  <source_parent_mol>  (25) 
0

>  <source_scenario>  (25) 
1 0

>  <source_rank_in_scored_call>  (25) 
1

>  <source_current_task>  (25) 
close_aromatic_ring

>  <scenario>  (25) 
1 0

>  <rotatable_bond_torsions>  (25) 
0,1,3,4

>  <reason_to_skip>  (25) 
some_atom_counter_exceeded

$$$$

     RDKit          3D

  6  5  0  0  0  0  0  0  0  0999 V2000
  -27.8640   -7.4760  -31.1990 C   0  0  0  0  0  0  0  0  0  0  0  0
  -27.5380   -6.7190  -32.2850 N   0  0  0  0  0  0  0  0  0  0  0  0
  -27.6840   -8.8650  -31.2620 N   0  0  0  0  0  0  0  0  0  0  0  0
  -27.8024   -5.3830  -31.8813 C   0  0  0  0  0  0  0  0  0  0  0  0
  -28.2367   -4.9275  -30.7486 C   0  0  0  0  0  0  0  0  0  0  0  0
  -28.7670   -5.7028  -29.7162 N   0  0  0  0  0  0  0  0  0  0  0  0
  1  2  2  3
  1  3  1  0
  2  4  1  0
  4  5  2  3
  5  6  1  0
M  END
>  <name>  (26) 
Car Nac Nd0 Car Car Nac

>  <indices>  (26) 
[0, 1, 2]

>  <dummy>  (26) 
2

>  <tasks>  (26) 
probe_placing close_aromatic_ring close_aromatic_ring

>  <current_task>  (26) 
close_aromatic_ring

>  <prot_clashes>  (26) 
0

>  <NBS phar>  (26) 
0.2

>  <NBS_non-phar>  (26) 
0.8957483291625976

>  <NBS>  (26) 
1.0957483291625976

>  <source_stage>  (26) 
scored

>  <source_iter>  (26) 
2

>  <source_parent_mol>  (26) 
0

>  <source_scenario>  (26) 
1 0

>  <source_rank_in_scored_call>  (26) 
1

>  <source_current_task>  (26) 
close_aromatic_ring

>  <scenario>  (26) 
1 0

>  <rotatable_bond_torsions>  (26) 
0,1,3,4

>  <reason_to_skip>  (26) 
incorrect arom ring closing

$$$$

     RDKit          3D

  6  5  0  0  0  0  0  0  0  0999 V2000
  -27.8640   -7.4760  -31.1990 C   0  0  0  0  0  0  0  0  0  0  0  0
  -27.5380   -6.7190  -32.2850 N   0  0  0  0  0  0  0  0  0  0  0  0
  -27.6840   -8.8650  -31.2620 N   0  0  0  0  0  0  0  0  0  0  0  0
  -27.8024   -5.3830  -31.8813 C   0  0  0  0  0  0  0  0  0  0  0  0
  -28.2367   -4.9275  -30.7486 C   0  0  0  0  0  0  0  0  0  0  0  0
    0.0000    0.0000    0.0000 S   0  0  0  0  0  0  0  0  0  0  0  0
  1  2  2  3
  1  3  1  0
  2  4  1  0
  4  5  2  3
  5  6  1  0
M  END
>  <name>  (27) 
Car Nac Nd0 Car Car Sul

>  <indices>  (27) 
[0, 1, 2]

>  <dummy>  (27) 
2

>  <tasks>  (27) 
probe_placing close_aromatic_ring close_aromatic_ring

>  <current_task>  (27) 
close_aromatic_ring

>  <prot_clashes>  (27) 
0

>  <NBS phar>  (27) 
0.2

>  <NBS_non-phar>  (27) 
0.8957483291625976

>  <NBS>  (27) 
1.0957483291625976

>  <source_stage>  (27) 
scored

>  <source_iter>  (27) 
2

>  <source_parent_mol>  (27) 
0

>  <source_scenario>  (27) 
1 0

>  <source_rank_in_scored_call>  (27) 
1

>  <source_current_task>  (27) 
close_aromatic_ring

>  <scenario>  (27) 
1 0

>  <rotatable_bond_torsions>  (27) 
0,1,3,4

>  <reason_to_skip>  (27) 
some_atom_counter_exceeded

$$$$

     RDKit          3D

  6  5  0  0  0  0  0  0  0  0999 V2000
  -27.8640   -7.4760  -31.1990 C   0  0  0  0  0  0  0  0  0  0  0  0
  -27.5380   -6.7190  -32.2850 N   0  0  0  0  0  0  0  0  0  0  0  0
  -27.6840   -8.8650  -31.2620 N   0  0  0  0  0  0  0  0  0  0  0  0
  -27.8024   -5.3830  -31.8813 C   0  0  0  0  0  0  0  0  0  0  0  0
  -28.2367   -4.9275  -30.7486 C   0  0  0  0  0  0  0  0  0  0  0  0
    0.0000    0.0000    0.0000 O   0  0  0  0  0  0  0  0  0  0  0  0
  1  2  2  3
  1  3  1  0
  2  4  1  0
  4  5  2  3
  5  6  1  0
M  END
>  <name>  (28) 
Car Nac Nd0 Car Car O_a

>  <indices>  (28) 
[0, 1, 2]

>  <dummy>  (28) 
2

>  <tasks>  (28) 
probe_placing close_aromatic_ring close_aromatic_ring

>  <current_task>  (28) 
close_aromatic_ring

>  <prot_clashes>  (28) 
0

>  <NBS phar>  (28) 
0.2

>  <NBS_non-phar>  (28) 
0.8957483291625976

>  <NBS>  (28) 
1.0957483291625976

>  <source_stage>  (28) 
scored

>  <source_iter>  (28) 
2

>  <source_parent_mol>  (28) 
0

>  <source_scenario>  (28) 
1 0

>  <source_rank_in_scored_call>  (28) 
1

>  <source_current_task>  (28) 
close_aromatic_ring

>  <scenario>  (28) 
1 0

>  <rotatable_bond_torsions>  (28) 
0,1,3,4

>  <reason_to_skip>  (28) 
some_atom_counter_exceeded

$$$$

     RDKit          3D

  6  5  0  0  0  0  0  0  0  0999 V2000
  -27.8640   -7.4760  -31.1990 C   0  0  0  0  0  0  0  0  0  0  0  0
  -27.5380   -6.7190  -32.2850 N   0  0  0  0  0  0  0  0  0  0  0  0
  -27.6840   -8.8650  -31.2620 N   0  0  0  0  0  0  0  0  0  0  0  0
  -27.8024   -5.3830  -31.8813 C   0  0  0  0  0  0  0  0  0  0  0  0
  -28.2367   -4.9275  -30.7486 C   0  0  0  0  0  0  0  0  0  0  0  0
    0.0000    0.0000    0.0000 S   0  0  0  0  0  0  0  0  0  0  0  0
  1  2  2  3
  1  3  1  0
  2  4  1  0
  4  5  2  3
  5  6  1  0
M  END
>  <name>  (29) 
Car Nac Nd0 Car Car Sul

>  <indices>  (29) 
[0, 1, 2]

>  <dummy>  (29) 
2

>  <tasks>  (29) 
probe_placing close_aromatic_ring close_aromatic_ring

>  <current_task>  (29) 
close_aromatic_ring

>  <prot_clashes>  (29) 
0

>  <NBS phar>  (29) 
0.2

>  <NBS_non-phar>  (29) 
0.8957483291625976

>  <NBS>  (29) 
1.0957483291625976

>  <source_stage>  (29) 
scored

>  <source_iter>  (29) 
2

>  <source_parent_mol>  (29) 
0

>  <source_scenario>  (29) 
1 0

>  <source_rank_in_scored_call>  (29) 
1

>  <source_current_task>  (29) 
close_aromatic_ring

>  <scenario>  (29) 
1 0

>  <rotatable_bond_torsions>  (29) 
0,1,3,4

>  <reason_to_skip>  (29) 
some_atom_counter_exceeded

$$$$

     RDKit          3D

  6  5  0  0  0  0  0  0  0  0999 V2000
  -27.8640   -7.4760  -31.1990 C   0  0  0  0  0  0  0  0  0  0  0  0
  -27.5380   -6.7190  -32.2850 N   0  0  0  0  0  0  0  0  0  0  0  0
  -27.6840   -8.8650  -31.2620 N   0  0  0  0  0  0  0  0  0  0  0  0
  -27.8024   -5.3830  -31.8813 C   0  0  0  0  0  0  0  0  0  0  0  0
  -28.2367   -4.9275  -30.7486 C   0  0  0  0  0  0  0  0  0  0  0  0
    0.0000    0.0000    0.0000 S   0  0  0  0  0  0  0  0  0  0  0  0
  1  2  2  3
  1  3  1  0
  2  4  1  0
  4  5  2  3
  5  6  1  0
M  END
>  <name>  (30) 
Car Nac Nd0 Car Car Sul

>  <indices>  (30) 
[0, 1, 2]

>  <dummy>  (30) 
2

>  <tasks>  (30) 
probe_placing close_aromatic_ring close_aromatic_ring

>  <current_task>  (30) 
close_aromatic_ring

>  <prot_clashes>  (30) 
0

>  <NBS phar>  (30) 
0.2

>  <NBS_non-phar>  (30) 
0.8957483291625976

>  <NBS>  (30) 
1.0957483291625976

>  <source_stage>  (30) 
scored

>  <source_iter>  (30) 
2

>  <source_parent_mol>  (30) 
0

>  <source_scenario>  (30) 
1 0

>  <source_rank_in_scored_call>  (30) 
1

>  <source_current_task>  (30) 
close_aromatic_ring

>  <scenario>  (30) 
1 0

>  <rotatable_bond_torsions>  (30) 
0,1,3,4

>  <reason_to_skip>  (30) 
some_atom_counter_exceeded

$$$$

     RDKit          3D

  6  5  0  0  0  0  0  0  0  0999 V2000
  -27.8640   -7.4760  -31.1990 C   0  0  0  0  0  0  0  0  0  0  0  0
  -27.5380   -6.7190  -32.2850 N   0  0  0  0  0  0  0  0  0  0  0  0
  -27.6840   -8.8650  -31.2620 N   0  0  0  0  0  0  0  0  0  0  0  0
  -27.8024   -5.3830  -31.8813 C   0  0  0  0  0  0  0  0  0  0  0  0
  -28.2367   -4.9275  -30.7486 C   0  0  0  0  0  0  0  0  0  0  0  0
  -27.4171   -4.9154  -29.5152 C   0  0  0  0  0  0  0  0  0  0  0  0
  1  2  2  3
  1  3  1  0
  2  4  1  0
  4  5  2  3
  5  6  1  0
M  END
>  <name>  (31) 
Car Nac Nd0 Car Car Car

>  <indices>  (31) 
[0, 1, 2]

>  <dummy>  (31) 
2

>  <tasks>  (31) 
probe_placing close_aromatic_ring close_aromatic_ring

>  <current_task>  (31) 
close_aromatic_ring

>  <prot_clashes>  (31) 
0

>  <NBS phar>  (31) 
0.2

>  <NBS_non-phar>  (31) 
0.8957483291625976

>  <NBS>  (31) 
1.0957483291625976

>  <source_stage>  (31) 
scored

>  <source_iter>  (31) 
2

>  <source_parent_mol>  (31) 
0

>  <source_scenario>  (31) 
1 0

>  <source_rank_in_scored_call>  (31) 
1

>  <source_current_task>  (31) 
close_aromatic_ring

>  <scenario>  (31) 
1 0

>  <rotatable_bond_torsions>  (31) 
0,1,3,4

>  <reason_to_skip>  (31) 
incorrect arom ring closing

$$$$

     RDKit          3D

  6  5  0  0  0  0  0  0  0  0999 V2000
  -27.8640   -7.4760  -31.1990 C   0  0  0  0  0  0  0  0  0  0  0  0
  -27.5380   -6.7190  -32.2850 N   0  0  0  0  0  0  0  0  0  0  0  0
  -27.6840   -8.8650  -31.2620 N   0  0  0  0  0  0  0  0  0  0  0  0
  -27.8024   -5.3830  -31.8813 C   0  0  0  0  0  0  0  0  0  0  0  0
  -28.2367   -4.9275  -30.7486 C   0  0  0  0  0  0  0  0  0  0  0  0
    0.0000    0.0000    0.0000 O   0  0  0  0  0  0  0  0  0  0  0  0
  1  2  2  3
  1  3  1  0
  2  4  1  0
  4  5  2  3
  5  6  1  0
M  END
>  <name>  (32) 
Car Nac Nd0 Car Car O_a

>  <indices>  (32) 
[0, 1, 2]

>  <dummy>  (32) 
2

>  <tasks>  (32) 
probe_placing close_aromatic_ring close_aromatic_ring

>  <current_task>  (32) 
close_aromatic_ring

>  <prot_clashes>  (32) 
0

>  <NBS phar>  (32) 
0.2

>  <NBS_non-phar>  (32) 
0.8957483291625976

>  <NBS>  (32) 
1.0957483291625976

>  <source_stage>  (32) 
scored

>  <source_iter>  (32) 
2

>  <source_parent_mol>  (32) 
0

>  <source_scenario>  (32) 
1 0

>  <source_rank_in_scored_call>  (32) 
1

>  <source_current_task>  (32) 
close_aromatic_ring

>  <scenario>  (32) 
1 0

>  <rotatable_bond_torsions>  (32) 
0,1,3,4

>  <reason_to_skip>  (32) 
some_atom_counter_exceeded

$$$$

     RDKit          3D

  6  5  0  0  0  0  0  0  0  0999 V2000
  -27.8640   -7.4760  -31.1990 C   0  0  0  0  0  0  0  0  0  0  0  0
  -27.5380   -6.7190  -32.2850 N   0  0  0  0  0  0  0  0  0  0  0  0
  -27.6840   -8.8650  -31.2620 N   0  0  0  0  0  0  0  0  0  0  0  0
  -27.8024   -5.3830  -31.8813 C   0  0  0  0  0  0  0  0  0  0  0  0
  -28.2367   -4.9275  -30.7486 C   0  0  0  0  0  0  0  0  0  0  0  0
    0.0000    0.0000    0.0000 S   0  0  0  0  0  0  0  0  0  0  0  0
  1  2  2  3
  1  3  1  0
  2  4  1  0
  4  5  2  3
  5  6  1  0
M  END
>  <name>  (33) 
Car Nac Nd0 Car Car Sul

>  <indices>  (33) 
[0, 1, 2]

>  <dummy>  (33) 
2

>  <tasks>  (33) 
probe_placing close_aromatic_ring close_aromatic_ring

>  <current_task>  (33) 
close_aromatic_ring

>  <prot_clashes>  (33) 
0

>  <NBS phar>  (33) 
0.2

>  <NBS_non-phar>  (33) 
0.8957483291625976

>  <NBS>  (33) 
1.0957483291625976

>  <source_stage>  (33) 
scored

>  <source_iter>  (33) 
2

>  <source_parent_mol>  (33) 
0

>  <source_scenario>  (33) 
1 0

>  <source_rank_in_scored_call>  (33) 
1

>  <source_current_task>  (33) 
close_aromatic_ring

>  <scenario>  (33) 
1 0

>  <rotatable_bond_torsions>  (33) 
0,1,3,4

>  <reason_to_skip>  (33) 
some_atom_counter_exceeded

$$$$

     RDKit          3D

  6  5  0  0  0  0  0  0  0  0999 V2000
  -27.8640   -7.4760  -31.1990 C   0  0  0  0  0  0  0  0  0  0  0  0
  -27.5380   -6.7190  -32.2850 N   0  0  0  0  0  0  0  0  0  0  0  0
  -27.6840   -8.8650  -31.2620 N   0  0  0  0  0  0  0  0  0  0  0  0
  -27.8024   -5.3830  -31.8813 C   0  0  0  0  0  0  0  0  0  0  0  0
  -28.2367   -4.9275  -30.7486 C   0  0  0  0  0  0  0  0  0  0  0  0
    0.0000    0.0000    0.0000 S   0  0  0  0  0  0  0  0  0  0  0  0
  1  2  2  3
  1  3  1  0
  2  4  1  0
  4  5  2  3
  5  6  1  0
M  END
>  <name>  (34) 
Car Nac Nd0 Car Car Sul

>  <indices>  (34) 
[0, 1, 2]

>  <dummy>  (34) 
2

>  <tasks>  (34) 
probe_placing close_aromatic_ring close_aromatic_ring

>  <current_task>  (34) 
close_aromatic_ring

>  <prot_clashes>  (34) 
0

>  <NBS phar>  (34) 
0.2

>  <NBS_non-phar>  (34) 
0.8957483291625976

>  <NBS>  (34) 
1.0957483291625976

>  <source_stage>  (34) 
scored

>  <source_iter>  (34) 
2

>  <source_parent_mol>  (34) 
0

>  <source_scenario>  (34) 
1 0

>  <source_rank_in_scored_call>  (34) 
1

>  <source_current_task>  (34) 
close_aromatic_ring

>  <scenario>  (34) 
1 0

>  <rotatable_bond_torsions>  (34) 
0,1,3,4

>  <reason_to_skip>  (34) 
some_atom_counter_exceeded

$$$$

     RDKit          3D

  6  5  0  0  0  0  0  0  0  0999 V2000
  -27.8640   -7.4760  -31.1990 C   0  0  0  0  0  0  0  0  0  0  0  0
  -27.5380   -6.7190  -32.2850 N   0  0  0  0  0  0  0  0  0  0  0  0
  -27.6840   -8.8650  -31.2620 N   0  0  0  0  0  0  0  0  0  0  0  0
  -27.8024   -5.3830  -31.8813 C   0  0  0  0  0  0  0  0  0  0  0  0
  -28.2367   -4.9275  -30.7486 C   0  0  0  0  0  0  0  0  0  0  0  0
    0.0000    0.0000    0.0000 S   0  0  0  0  0  0  0  0  0  0  0  0
  1  2  2  3
  1  3  1  0
  2  4  1  0
  4  5  2  3
  5  6  1  0
M  END
>  <name>  (35) 
Car Nac Nd0 Car Car Sul

>  <indices>  (35) 
[0, 1, 2]

>  <dummy>  (35) 
2

>  <tasks>  (35) 
probe_placing close_aromatic_ring close_aromatic_ring

>  <current_task>  (35) 
close_aromatic_ring

>  <prot_clashes>  (35) 
0

>  <NBS phar>  (35) 
0.2

>  <NBS_non-phar>  (35) 
0.8957483291625976

>  <NBS>  (35) 
1.0957483291625976

>  <source_stage>  (35) 
scored

>  <source_iter>  (35) 
2

>  <source_parent_mol>  (35) 
0

>  <source_scenario>  (35) 
1 0

>  <source_rank_in_scored_call>  (35) 
1

>  <source_current_task>  (35) 
close_aromatic_ring

>  <scenario>  (35) 
1 0

>  <rotatable_bond_torsions>  (35) 
0,1,3,4

>  <reason_to_skip>  (35) 
some_atom_counter_exceeded

$$$$

     RDKit          3D

  6  5  0  0  0  0  0  0  0  0999 V2000
  -27.8640   -7.4760  -31.1990 C   0  0  0  0  0  0  0  0  0  0  0  0
  -27.5380   -6.7190  -32.2850 N   0  0  0  0  0  0  0  0  0  0  0  0
  -27.6840   -8.8650  -31.2620 N   0  0  0  0  0  0  0  0  0  0  0  0
  -27.8024   -5.3830  -31.8813 C   0  0  0  0  0  0  0  0  0  0  0  0
  -28.2367   -4.9275  -30.7486 C   0  0  0  0  0  0  0  0  0  0  0  0
  -27.6522   -4.0849  -30.0037 N   0  0  0  0  0  0  0  0  0  0  0  0
  1  2  2  3
  1  3  1  0
  2  4  1  0
  4  5  2  3
  5  6  1  0
M  END
>  <name>  (36) 
Car Nac Nd0 Car Car Nac

>  <indices>  (36) 
[0, 1, 2]

>  <dummy>  (36) 
2

>  <tasks>  (36) 
probe_placing close_aromatic_ring close_aromatic_ring

>  <current_task>  (36) 
close_aromatic_ring

>  <prot_clashes>  (36) 
0

>  <NBS phar>  (36) 
0.2

>  <NBS_non-phar>  (36) 
0.8957483291625976

>  <NBS>  (36) 
1.0957483291625976

>  <source_stage>  (36) 
scored

>  <source_iter>  (36) 
2

>  <source_parent_mol>  (36) 
0

>  <source_scenario>  (36) 
1 0

>  <source_rank_in_scored_call>  (36) 
1

>  <source_current_task>  (36) 
close_aromatic_ring

>  <scenario>  (36) 
1 0

>  <rotatable_bond_torsions>  (36) 
0,1,3,4

>  <reason_to_skip>  (36) 
incorrect arom ring closing

$$$$

     RDKit          3D

  6  5  0  0  0  0  0  0  0  0999 V2000
  -27.8640   -7.4760  -31.1990 C   0  0  0  0  0  0  0  0  0  0  0  0
  -27.5380   -6.7190  -32.2850 N   0  0  0  0  0  0  0  0  0  0  0  0
  -27.6840   -8.8650  -31.2620 N   0  0  0  0  0  0  0  0  0  0  0  0
  -27.8024   -5.3830  -31.8813 C   0  0  0  0  0  0  0  0  0  0  0  0
  -28.2367   -4.9275  -30.7486 C   0  0  0  0  0  0  0  0  0  0  0  0
    0.0000    0.0000    0.0000 O   0  0  0  0  0  0  0  0  0  0  0  0
  1  2  2  3
  1  3  1  0
  2  4  1  0
  4  5  2  3
  5  6  1  0
M  END
>  <name>  (37) 
Car Nac Nd0 Car Car O_a

>  <indices>  (37) 
[0, 1, 2]

>  <dummy>  (37) 
2

>  <tasks>  (37) 
probe_placing close_aromatic_ring close_aromatic_ring

>  <current_task>  (37) 
close_aromatic_ring

>  <prot_clashes>  (37) 
0

>  <NBS phar>  (37) 
0.2

>  <NBS_non-phar>  (37) 
0.8957483291625976

>  <NBS>  (37) 
1.0957483291625976

>  <source_stage>  (37) 
scored

>  <source_iter>  (37) 
2

>  <source_parent_mol>  (37) 
0

>  <source_scenario>  (37) 
1 0

>  <source_rank_in_scored_call>  (37) 
1

>  <source_current_task>  (37) 
close_aromatic_ring

>  <scenario>  (37) 
1 0

>  <rotatable_bond_torsions>  (37) 
0,1,3,4

>  <reason_to_skip>  (37) 
some_atom_counter_exceeded

$$$$

     RDKit          3D

  6  5  0  0  0  0  0  0  0  0999 V2000
  -27.8640   -7.4760  -31.1990 C   0  0  0  0  0  0  0  0  0  0  0  0
  -27.5380   -6.7190  -32.2850 N   0  0  0  0  0  0  0  0  0  0  0  0
  -27.6840   -8.8650  -31.2620 N   0  0  0  0  0  0  0  0  0  0  0  0
  -27.8024   -5.3830  -31.8813 C   0  0  0  0  0  0  0  0  0  0  0  0
  -28.2367   -4.9275  -30.7486 C   0  0  0  0  0  0  0  0  0  0  0  0
    0.0000    0.0000    0.0000 O   0  0  0  0  0  0  0  0  0  0  0  0
  1  2  2  3
  1  3  1  0
  2  4  1  0
  4  5  2  3
  5  6  1  0
M  END
>  <name>  (38) 
Car Nac Nd0 Car Car O_a

>  <indices>  (38) 
[0, 1, 2]

>  <dummy>  (38) 
2

>  <tasks>  (38) 
probe_placing close_aromatic_ring close_aromatic_ring

>  <current_task>  (38) 
close_aromatic_ring

>  <prot_clashes>  (38) 
0

>  <NBS phar>  (38) 
0.2

>  <NBS_non-phar>  (38) 
0.8957483291625976

>  <NBS>  (38) 
1.0957483291625976

>  <source_stage>  (38) 
scored

>  <source_iter>  (38) 
2

>  <source_parent_mol>  (38) 
0

>  <source_scenario>  (38) 
1 0

>  <source_rank_in_scored_call>  (38) 
1

>  <source_current_task>  (38) 
close_aromatic_ring

>  <scenario>  (38) 
1 0

>  <rotatable_bond_torsions>  (38) 
0,1,3,4

>  <reason_to_skip>  (38) 
some_atom_counter_exceeded

$$$$

     RDKit          3D

  6  5  0  0  0  0  0  0  0  0999 V2000
  -27.8640   -7.4760  -31.1990 C   0  0  0  0  0  0  0  0  0  0  0  0
  -27.5380   -6.7190  -32.2850 N   0  0  0  0  0  0  0  0  0  0  0  0
  -27.6840   -8.8650  -31.2620 N   0  0  0  0  0  0  0  0  0  0  0  0
  -27.8024   -5.3830  -31.8813 C   0  0  0  0  0  0  0  0  0  0  0  0
  -28.2367   -4.9275  -30.7486 C   0  0  0  0  0  0  0  0  0  0  0  0
  -29.4383   -4.3966  -30.5671 N   0  0  0  0  0  0  0  0  0  0  0  0
  1  2  2  3
  1  3  1  0
  2  4  1  0
  4  5  2  3
  5  6  1  0
M  END
>  <name>  (39) 
Car Nac Nd0 Car Car Nac

>  <indices>  (39) 
[0, 1, 2]

>  <dummy>  (39) 
2

>  <tasks>  (39) 
probe_placing close_aromatic_ring close_aromatic_ring

>  <current_task>  (39) 
close_aromatic_ring

>  <prot_clashes>  (39) 
0

>  <NBS phar>  (39) 
0.2

>  <NBS_non-phar>  (39) 
0.8957483291625976

>  <NBS>  (39) 
1.0957483291625976

>  <source_stage>  (39) 
scored

>  <source_iter>  (39) 
2

>  <source_parent_mol>  (39) 
0

>  <source_scenario>  (39) 
1 0

>  <source_rank_in_scored_call>  (39) 
1

>  <source_current_task>  (39) 
close_aromatic_ring

>  <scenario>  (39) 
1 0

>  <rotatable_bond_torsions>  (39) 
0,1,3,4

>  <reason_to_skip>  (39) 
incorrect arom ring closing

$$$$

     RDKit          3D

  6  5  0  0  0  0  0  0  0  0999 V2000
  -27.8640   -7.4760  -31.1990 C   0  0  0  0  0  0  0  0  0  0  0  0
  -27.5380   -6.7190  -32.2850 N   0  0  0  0  0  0  0  0  0  0  0  0
  -27.6840   -8.8650  -31.2620 N   0  0  0  0  0  0  0  0  0  0  0  0
  -27.8024   -5.3830  -31.8813 C   0  0  0  0  0  0  0  0  0  0  0  0
  -28.2367   -4.9275  -30.7486 C   0  0  0  0  0  0  0  0  0  0  0  0
    0.0000    0.0000    0.0000 S   0  0  0  0  0  0  0  0  0  0  0  0
  1  2  2  3
  1  3  1  0
  2  4  1  0
  4  5  2  3
  5  6  1  0
M  END
>  <name>  (40) 
Car Nac Nd0 Car Car Sul

>  <indices>  (40) 
[0, 1, 2]

>  <dummy>  (40) 
2

>  <tasks>  (40) 
probe_placing close_aromatic_ring close_aromatic_ring

>  <current_task>  (40) 
close_aromatic_ring

>  <prot_clashes>  (40) 
0

>  <NBS phar>  (40) 
0.2

>  <NBS_non-phar>  (40) 
0.8957483291625976

>  <NBS>  (40) 
1.0957483291625976

>  <source_stage>  (40) 
scored

>  <source_iter>  (40) 
2

>  <source_parent_mol>  (40) 
0

>  <source_scenario>  (40) 
1 0

>  <source_rank_in_scored_call>  (40) 
1

>  <source_current_task>  (40) 
close_aromatic_ring

>  <scenario>  (40) 
1 0

>  <rotatable_bond_torsions>  (40) 
0,1,3,4

>  <reason_to_skip>  (40) 
some_atom_counter_exceeded

$$$$

     RDKit          3D

  6  5  0  0  0  0  0  0  0  0999 V2000
  -27.8640   -7.4760  -31.1990 C   0  0  0  0  0  0  0  0  0  0  0  0
  -27.5380   -6.7190  -32.2850 N   0  0  0  0  0  0  0  0  0  0  0  0
  -27.6840   -8.8650  -31.2620 N   0  0  0  0  0  0  0  0  0  0  0  0
  -27.8024   -5.3830  -31.8813 C   0  0  0  0  0  0  0  0  0  0  0  0
  -28.2367   -4.9275  -30.7486 C   0  0  0  0  0  0  0  0  0  0  0  0
    0.0000    0.0000    0.0000 S   0  0  0  0  0  0  0  0  0  0  0  0
  1  2  2  3
  1  3  1  0
  2  4  1  0
  4  5  2  3
  5  6  1  0
M  END
>  <name>  (41) 
Car Nac Nd0 Car Car Sul

>  <indices>  (41) 
[0, 1, 2]

>  <dummy>  (41) 
2

>  <tasks>  (41) 
probe_placing close_aromatic_ring close_aromatic_ring

>  <current_task>  (41) 
close_aromatic_ring

>  <prot_clashes>  (41) 
0

>  <NBS phar>  (41) 
0.2

>  <NBS_non-phar>  (41) 
0.8957483291625976

>  <NBS>  (41) 
1.0957483291625976

>  <source_stage>  (41) 
scored

>  <source_iter>  (41) 
2

>  <source_parent_mol>  (41) 
0

>  <source_scenario>  (41) 
1 0

>  <source_rank_in_scored_call>  (41) 
1

>  <source_current_task>  (41) 
close_aromatic_ring

>  <scenario>  (41) 
1 0

>  <rotatable_bond_torsions>  (41) 
0,1,3,4

>  <reason_to_skip>  (41) 
some_atom_counter_exceeded

$$$$

     RDKit          3D

  6  5  0  0  0  0  0  0  0  0999 V2000
  -27.8640   -7.4760  -31.1990 C   0  0  0  0  0  0  0  0  0  0  0  0
  -27.5380   -6.7190  -32.2850 N   0  0  0  0  0  0  0  0  0  0  0  0
  -27.6840   -8.8650  -31.2620 N   0  0  0  0  0  0  0  0  0  0  0  0
  -27.8024   -5.3830  -31.8813 C   0  0  0  0  0  0  0  0  0  0  0  0
  -28.2367   -4.9275  -30.7486 C   0  0  0  0  0  0  0  0  0  0  0  0
  -28.5014   -5.9544  -29.7666 N   0  0  0  0  0  0  0  0  0  0  0  0
  1  2  2  3
  1  3  1  0
  2  4  1  0
  4  5  2  3
  5  6  1  0
M  END
>  <name>  (42) 
Car Nac Nd0 Car Car Nac

>  <indices>  (42) 
[0, 1, 2]

>  <dummy>  (42) 
2

>  <tasks>  (42) 
probe_placing close_aromatic_ring close_aromatic_ring

>  <current_task>  (42) 
close_aromatic_ring

>  <prot_clashes>  (42) 
0

>  <NBS phar>  (42) 
0.2

>  <NBS_non-phar>  (42) 
0.8957483291625976

>  <NBS>  (42) 
1.0957483291625976

>  <source_stage>  (42) 
scored

>  <source_iter>  (42) 
2

>  <source_parent_mol>  (42) 
0

>  <source_scenario>  (42) 
1 0

>  <source_rank_in_scored_call>  (42) 
1

>  <source_current_task>  (42) 
close_aromatic_ring

>  <scenario>  (42) 
1 0

>  <rotatable_bond_torsions>  (42) 
0,1,3,4

>  <reason_to_skip>  (42) 
subgraph mismatch

$$$$

     RDKit          3D

  6  5  0  0  0  0  0  0  0  0999 V2000
  -27.8640   -7.4760  -31.1990 C   0  0  0  0  0  0  0  0  0  0  0  0
  -27.5380   -6.7190  -32.2850 N   0  0  0  0  0  0  0  0  0  0  0  0
  -27.6840   -8.8650  -31.2620 N   0  0  0  0  0  0  0  0  0  0  0  0
  -27.8024   -5.3830  -31.8813 C   0  0  0  0  0  0  0  0  0  0  0  0
  -28.2367   -4.9275  -30.7486 C   0  0  0  0  0  0  0  0  0  0  0  0
  -28.5363   -5.6349  -29.5253 N   0  0  0  0  0  0  0  0  0  0  0  0
  1  2  2  3
  1  3  1  0
  2  4  1  0
  4  5  2  3
  5  6  1  0
M  END
>  <name>  (43) 
Car Nac Nd0 Car Car Nac

>  <indices>  (43) 
[0, 1, 2]

>  <dummy>  (43) 
2

>  <tasks>  (43) 
probe_placing close_aromatic_ring close_aromatic_ring

>  <current_task>  (43) 
close_aromatic_ring

>  <prot_clashes>  (43) 
0

>  <NBS phar>  (43) 
0.2

>  <NBS_non-phar>  (43) 
0.8957483291625976

>  <NBS>  (43) 
1.0957483291625976

>  <source_stage>  (43) 
scored

>  <source_iter>  (43) 
2

>  <source_parent_mol>  (43) 
0

>  <source_scenario>  (43) 
1 0

>  <source_rank_in_scored_call>  (43) 
1

>  <source_current_task>  (43) 
close_aromatic_ring

>  <scenario>  (43) 
1 0

>  <rotatable_bond_torsions>  (43) 
0,1,3,4

>  <reason_to_skip>  (43) 
subgraph mismatch

$$$$

     RDKit          3D

  7  7  0  0  0  0  0  0  0  0999 V2000
  -27.9876   -7.5711  -31.1421 C   0  0  0  0  0  0  0  0  0  0  0  0
  -27.7068   -6.7328  -32.1303 N   0  0  0  0  0  0  0  0  0  0  0  0
  -27.6840   -8.8650  -31.2620 N   0  0  0  0  0  0  0  0  0  0  0  0
  -27.6669   -5.3251  -31.8555 C   0  0  0  0  0  0  0  0  0  0  0  0
  -28.1969   -4.8401  -30.6779 C   0  0  0  0  0  0  0  0  0  0  0  0
  -28.8599   -5.8057  -29.7199 C   0  0  0  0  0  0  0  0  0  0  0  0
  -28.2294   -7.0811  -29.7508 C   0  0  0  0  0  0  0  0  0  0  0  0
  1  2  2  0
  1  3  1  0
  2  4  1  0
  4  5  2  0
  5  6  1  0
  6  7  1  0
  1  7  1  0
M  END
>  <name>  (1) 
Car Nac Nd0 Car Car Car Car

>  <indices>  (1) 
[0, 1, 2]

>  <dummy>  (1) 
2

>  <tasks>  (1) 
probe_placing close_aromatic_ring close_aromatic_ring close_aromatic_ring

>  <current_task>  (1) 
close_aromatic_ring

>  <prot_clashes>  (1) 
1

>  <NBS phar>  (1) 
0.2

>  <NBS_non-phar>  (1) 
0.8784493605295817

>  <NBS>  (1) 
1.0784493605295817

>  <source_stage>  (1) 
scored

>  <source_iter>  (1) 
3

>  <source_parent_mol>  (1) 
1

>  <source_scenario>  (1) 
1 0 1

>  <source_rank_in_scored_call>  (1) 
0

>  <source_current_task>  (1) 
close_aromatic_ring

>  <scenario>  (1) 
1 0 1

>  <rotatable_bond_torsions>  (1) 
0,1,3,4

>  <reason_to_skip>  (1) 
Car-Nac-DB dihedral

$$$$

     RDKit          3D

  7  6  0  0  0  0  0  0  0  0999 V2000
  -27.8640   -7.4760  -31.1990 C   0  0  0  0  0  0  0  0  0  0  0  0
  -27.5380   -6.7190  -32.2850 N   0  0  0  0  0  0  0  0  0  0  0  0
  -27.6840   -8.8650  -31.2620 N   0  0  0  0  0  0  0  0  0  0  0  0
  -27.8024   -5.3830  -31.8813 C   0  0  0  0  0  0  0  0  0  0  0  0
  -28.2367   -4.9275  -30.7486 C   0  0  0  0  0  0  0  0  0  0  0  0
  -28.6734   -5.6694  -29.5069 C   0  0  0  0  0  0  0  0  0  0  0  0
  -29.0534   -5.0893  -28.2997 N   0  0  0  0  0  0  0  0  0  0  0  0
  1  2  2  3
  1  3  1  0
  2  4  1  0
  4  5  2  3
  5  6  1  0
  6  7  1  0
M  END
>  <name>  (2) 
Car Nac Nd0 Car Car Car Nd0

>  <indices>  (2) 
[0, 1, 2]

>  <dummy>  (2) 
2

>  <tasks>  (2) 
probe_placing close_aromatic_ring close_aromatic_ring close_aromatic_ring

>  <current_task>  (2) 
close_aromatic_ring

>  <prot_clashes>  (2) 
1

>  <NBS phar>  (2) 
0.2

>  <NBS_non-phar>  (2) 
0.8784493605295817

>  <NBS>  (2) 
1.0784493605295817

>  <source_stage>  (2) 
scored

>  <source_iter>  (2) 
3

>  <source_parent_mol>  (2) 
1

>  <source_scenario>  (2) 
1 0 1

>  <source_rank_in_scored_call>  (2) 
0

>  <source_current_task>  (2) 
close_aromatic_ring

>  <scenario>  (2) 
1 0 1

>  <rotatable_bond_torsions>  (2) 
0,1,3,4

>  <reason_to_skip>  (2) 
incorrect arom ring closing

$$$$

     RDKit          3D

  7  6  0  0  0  0  0  0  0  0999 V2000
  -27.8640   -7.4760  -31.1990 C   0  0  0  0  0  0  0  0  0  0  0  0
  -27.5380   -6.7190  -32.2850 N   0  0  0  0  0  0  0  0  0  0  0  0
  -27.6840   -8.8650  -31.2620 N   0  0  0  0  0  0  0  0  0  0  0  0
  -27.8024   -5.3830  -31.8813 C   0  0  0  0  0  0  0  0  0  0  0  0
  -28.2367   -4.9275  -30.7486 C   0  0  0  0  0  0  0  0  0  0  0  0
  -28.6734   -5.6694  -29.5069 C   0  0  0  0  0  0  0  0  0  0  0  0
  -29.2098   -5.1179  -28.3496 N   0  0  0  0  0  0  0  0  0  0  0  0
  1  2  2  3
  1  3  1  0
  2  4  1  0
  4  5  2  3
  5  6  1  0
  6  7  1  0
M  END
>  <name>  (3) 
Car Nac Nd0 Car Car Car Nd0

>  <indices>  (3) 
[0, 1, 2]

>  <dummy>  (3) 
2

>  <tasks>  (3) 
probe_placing close_aromatic_ring close_aromatic_ring close_aromatic_ring

>  <current_task>  (3) 
close_aromatic_ring

>  <prot_clashes>  (3) 
1

>  <NBS phar>  (3) 
0.2

>  <NBS_non-phar>  (3) 
0.8784493605295817

>  <NBS>  (3) 
1.0784493605295817

>  <source_stage>  (3) 
scored

>  <source_iter>  (3) 
3

>  <source_parent_mol>  (3) 
1

>  <source_scenario>  (3) 
1 0 1

>  <source_rank_in_scored_call>  (3) 
0

>  <source_current_task>  (3) 
close_aromatic_ring

>  <scenario>  (3) 
1 0 1

>  <rotatable_bond_torsions>  (3) 
0,1,3,4

>  <reason_to_skip>  (3) 
incorrect arom ring closing

$$$$

     RDKit          3D

  7  6  0  0  0  0  0  0  0  0999 V2000
  -27.8640   -7.4760  -31.1990 C   0  0  0  0  0  0  0  0  0  0  0  0
  -27.5380   -6.7190  -32.2850 N   0  0  0  0  0  0  0  0  0  0  0  0
  -27.6840   -8.8650  -31.2620 N   0  0  0  0  0  0  0  0  0  0  0  0
  -27.8024   -5.3830  -31.8813 C   0  0  0  0  0  0  0  0  0  0  0  0
  -28.2367   -4.9275  -30.7486 C   0  0  0  0  0  0  0  0  0  0  0  0
  -28.6734   -5.6694  -29.5069 C   0  0  0  0  0  0  0  0  0  0  0  0
  -29.0712   -5.0841  -28.4707 N   0  0  0  0  0  0  0  0  0  0  0  0
  1  2  2  3
  1  3  1  0
  2  4  1  0
  4  5  2  3
  5  6  1  0
  6  7  1  0
M  END
>  <name>  (4) 
Car Nac Nd0 Car Car Car Nac

>  <indices>  (4) 
[0, 1, 2]

>  <dummy>  (4) 
2

>  <tasks>  (4) 
probe_placing close_aromatic_ring close_aromatic_ring close_aromatic_ring

>  <current_task>  (4) 
close_aromatic_ring

>  <prot_clashes>  (4) 
1

>  <NBS phar>  (4) 
0.2

>  <NBS_non-phar>  (4) 
0.8784493605295817

>  <NBS>  (4) 
1.0784493605295817

>  <source_stage>  (4) 
scored

>  <source_iter>  (4) 
3

>  <source_parent_mol>  (4) 
1

>  <source_scenario>  (4) 
1 0 1

>  <source_rank_in_scored_call>  (4) 
0

>  <source_current_task>  (4) 
close_aromatic_ring

>  <scenario>  (4) 
1 0 1

>  <rotatable_bond_torsions>  (4) 
0,1,3,4

>  <reason_to_skip>  (4) 
incorrect arom ring closing

$$$$

     RDKit          3D

  7  6  0  0  0  0  0  0  0  0999 V2000
  -27.8640   -7.4760  -31.1990 C   0  0  0  0  0  0  0  0  0  0  0  0
  -27.5380   -6.7190  -32.2850 N   0  0  0  0  0  0  0  0  0  0  0  0
  -27.6840   -8.8650  -31.2620 N   0  0  0  0  0  0  0  0  0  0  0  0
  -27.8024   -5.3830  -31.8813 C   0  0  0  0  0  0  0  0  0  0  0  0
  -28.2367   -4.9275  -30.7486 C   0  0  0  0  0  0  0  0  0  0  0  0
  -28.6734   -5.6694  -29.5069 C   0  0  0  0  0  0  0  0  0  0  0  0
  -29.0857   -5.1620  -28.4484 N   0  0  0  0  0  0  0  0  0  0  0  0
  1  2  2  3
  1  3  1  0
  2  4  1  0
  4  5  2  3
  5  6  1  0
  6  7  1  0
M  END
>  <name>  (5) 
Car Nac Nd0 Car Car Car Nac

>  <indices>  (5) 
[0, 1, 2]

>  <dummy>  (5) 
2

>  <tasks>  (5) 
probe_placing close_aromatic_ring close_aromatic_ring close_aromatic_ring

>  <current_task>  (5) 
close_aromatic_ring

>  <prot_clashes>  (5) 
1

>  <NBS phar>  (5) 
0.2

>  <NBS_non-phar>  (5) 
0.8784493605295817

>  <NBS>  (5) 
1.0784493605295817

>  <source_stage>  (5) 
scored

>  <source_iter>  (5) 
3

>  <source_parent_mol>  (5) 
1

>  <source_scenario>  (5) 
1 0 1

>  <source_rank_in_scored_call>  (5) 
0

>  <source_current_task>  (5) 
close_aromatic_ring

>  <scenario>  (5) 
1 0 1

>  <rotatable_bond_torsions>  (5) 
0,1,3,4

>  <reason_to_skip>  (5) 
incorrect arom ring closing

$$$$

     RDKit          3D

  7  6  0  0  0  0  0  0  0  0999 V2000
  -27.8640   -7.4760  -31.1990 C   0  0  0  0  0  0  0  0  0  0  0  0
  -27.5380   -6.7190  -32.2850 N   0  0  0  0  0  0  0  0  0  0  0  0
  -27.6840   -8.8650  -31.2620 N   0  0  0  0  0  0  0  0  0  0  0  0
  -27.8024   -5.3830  -31.8813 C   0  0  0  0  0  0  0  0  0  0  0  0
  -28.2367   -4.9275  -30.7486 C   0  0  0  0  0  0  0  0  0  0  0  0
  -28.6734   -5.6694  -29.5069 C   0  0  0  0  0  0  0  0  0  0  0  0
    0.0000    0.0000    0.0000 O   0  0  0  0  0  0  0  0  0  0  0  0
  1  2  2  3
  1  3  1  0
  2  4  1  0
  4  5  2  3
  5  6  1  0
  6  7  1  0
M  END
>  <name>  (6) 
Car Nac Nd0 Car Car Car O_a

>  <indices>  (6) 
[0, 1, 2]

>  <dummy>  (6) 
2

>  <tasks>  (6) 
probe_placing close_aromatic_ring close_aromatic_ring close_aromatic_ring

>  <current_task>  (6) 
close_aromatic_ring

>  <prot_clashes>  (6) 
1

>  <NBS phar>  (6) 
0.2

>  <NBS_non-phar>  (6) 
0.8784493605295817

>  <NBS>  (6) 
1.0784493605295817

>  <source_stage>  (6) 
scored

>  <source_iter>  (6) 
3

>  <source_parent_mol>  (6) 
1

>  <source_scenario>  (6) 
1 0 1

>  <source_rank_in_scored_call>  (6) 
0

>  <source_current_task>  (6) 
close_aromatic_ring

>  <scenario>  (6) 
1 0 1

>  <rotatable_bond_torsions>  (6) 
0,1,3,4

>  <reason_to_skip>  (6) 
some_atom_counter_exceeded

$$$$

     RDKit          3D

  7  6  0  0  0  0  0  0  0  0999 V2000
  -27.8640   -7.4760  -31.1990 C   0  0  0  0  0  0  0  0  0  0  0  0
  -27.5380   -6.7190  -32.2850 N   0  0  0  0  0  0  0  0  0  0  0  0
  -27.6840   -8.8650  -31.2620 N   0  0  0  0  0  0  0  0  0  0  0  0
  -27.8024   -5.3830  -31.8813 C   0  0  0  0  0  0  0  0  0  0  0  0
  -28.2367   -4.9275  -30.7486 C   0  0  0  0  0  0  0  0  0  0  0  0
  -28.6734   -5.6694  -29.5069 C   0  0  0  0  0  0  0  0  0  0  0  0
    0.0000    0.0000    0.0000 O   0  0  0  0  0  0  0  0  0  0  0  0
  1  2  2  3
  1  3  1  0
  2  4  1  0
  4  5  2  3
  5  6  1  0
  6  7  1  0
M  END
>  <name>  (7) 
Car Nac Nd0 Car Car Car O_a

>  <indices>  (7) 
[0, 1, 2]

>  <dummy>  (7) 
2

>  <tasks>  (7) 
probe_placing close_aromatic_ring close_aromatic_ring close_aromatic_ring

>  <current_task>  (7) 
close_aromatic_ring

>  <prot_clashes>  (7) 
1

>  <NBS phar>  (7) 
0.2

>  <NBS_non-phar>  (7) 
0.8784493605295817

>  <NBS>  (7) 
1.0784493605295817

>  <source_stage>  (7) 
scored

>  <source_iter>  (7) 
3

>  <source_parent_mol>  (7) 
1

>  <source_scenario>  (7) 
1 0 1

>  <source_rank_in_scored_call>  (7) 
0

>  <source_current_task>  (7) 
close_aromatic_ring

>  <scenario>  (7) 
1 0 1

>  <rotatable_bond_torsions>  (7) 
0,1,3,4

>  <reason_to_skip>  (7) 
some_atom_counter_exceeded

$$$$

     RDKit          3D

  7  6  0  0  0  0  0  0  0  0999 V2000
  -27.8640   -7.4760  -31.1990 C   0  0  0  0  0  0  0  0  0  0  0  0
  -27.5380   -6.7190  -32.2850 N   0  0  0  0  0  0  0  0  0  0  0  0
  -27.6840   -8.8650  -31.2620 N   0  0  0  0  0  0  0  0  0  0  0  0
  -27.8024   -5.3830  -31.8813 C   0  0  0  0  0  0  0  0  0  0  0  0
  -28.2367   -4.9275  -30.7486 C   0  0  0  0  0  0  0  0  0  0  0  0
  -28.6734   -5.6694  -29.5069 C   0  0  0  0  0  0  0  0  0  0  0  0
  -28.1376   -6.9526  -29.1435 C   0  0  0  0  0  0  0  0  0  0  0  0
  1  2  2  3
  1  3  1  0
  2  4  1  0
  4  5  2  3
  5  6  1  0
  6  7  1  0
M  END
>  <name>  (8) 
Car Nac Nd0 Car Car Car Car

>  <indices>  (8) 
[0, 1, 2]

>  <dummy>  (8) 
2

>  <tasks>  (8) 
probe_placing close_aromatic_ring close_aromatic_ring close_aromatic_ring

>  <current_task>  (8) 
close_aromatic_ring

>  <prot_clashes>  (8) 
1

>  <NBS phar>  (8) 
0.2

>  <NBS_non-phar>  (8) 
0.8784493605295817

>  <NBS>  (8) 
1.0784493605295817

>  <source_stage>  (8) 
scored

>  <source_iter>  (8) 
3

>  <source_parent_mol>  (8) 
1

>  <source_scenario>  (8) 
1 0 1

>  <source_rank_in_scored_call>  (8) 
0

>  <source_current_task>  (8) 
close_aromatic_ring

>  <scenario>  (8) 
1 0 1

>  <rotatable_bond_torsions>  (8) 
0,1,3,4

>  <reason_to_skip>  (8) 
incorrect arom ring closing

$$$$

     RDKit          3D

  7  6  0  0  0  0  0  0  0  0999 V2000
  -27.8640   -7.4760  -31.1990 C   0  0  0  0  0  0  0  0  0  0  0  0
  -27.5380   -6.7190  -32.2850 N   0  0  0  0  0  0  0  0  0  0  0  0
  -27.6840   -8.8650  -31.2620 N   0  0  0  0  0  0  0  0  0  0  0  0
  -27.8024   -5.3830  -31.8813 C   0  0  0  0  0  0  0  0  0  0  0  0
  -28.2367   -4.9275  -30.7486 C   0  0  0  0  0  0  0  0  0  0  0  0
  -28.6734   -5.6694  -29.5069 C   0  0  0  0  0  0  0  0  0  0  0  0
  -29.7286   -5.3326  -28.8061 N   0  0  0  0  0  0  0  0  0  0  0  0
  1  2  2  3
  1  3  1  0
  2  4  1  0
  4  5  2  3
  5  6  1  0
  6  7  2  0
M  END
>  <name>  (9) 
Car Nac Nd0 Car Car Car Nac

>  <indices>  (9) 
[0, 1, 2]

>  <dummy>  (9) 
2

>  <tasks>  (9) 
probe_placing close_aromatic_ring close_aromatic_ring close_aromatic_ring

>  <current_task>  (9) 
close_aromatic_ring

>  <prot_clashes>  (9) 
1

>  <NBS phar>  (9) 
0.2

>  <NBS_non-phar>  (9) 
0.8784493605295817

>  <NBS>  (9) 
1.0784493605295817

>  <source_stage>  (9) 
scored

>  <source_iter>  (9) 
3

>  <source_parent_mol>  (9) 
1

>  <source_scenario>  (9) 
1 0 1

>  <source_rank_in_scored_call>  (9) 
0

>  <source_current_task>  (9) 
close_aromatic_ring

>  <scenario>  (9) 
1 0 1

>  <rotatable_bond_torsions>  (9) 
0,1,3,4

>  <reason_to_skip>  (9) 
incorrect arom ring closing

$$$$

     RDKit          3D

  7  6  0  0  0  0  0  0  0  0999 V2000
  -27.8640   -7.4760  -31.1990 C   0  0  0  0  0  0  0  0  0  0  0  0
  -27.5380   -6.7190  -32.2850 N   0  0  0  0  0  0  0  0  0  0  0  0
  -27.6840   -8.8650  -31.2620 N   0  0  0  0  0  0  0  0  0  0  0  0
  -27.8024   -5.3830  -31.8813 C   0  0  0  0  0  0  0  0  0  0  0  0
  -28.2367   -4.9275  -30.7486 C   0  0  0  0  0  0  0  0  0  0  0  0
  -28.6734   -5.6694  -29.5069 C   0  0  0  0  0  0  0  0  0  0  0  0
  -29.6065   -5.4520  -28.5348 C   0  0  0  0  0  0  0  0  0  0  0  0
  1  2  2  3
  1  3  1  0
  2  4  1  0
  4  5  2  3
  5  6  1  0
  6  7  1  0
M  END
>  <name>  (10) 
Car Nac Nd0 Car Car Car Car

>  <indices>  (10) 
[0, 1, 2]

>  <dummy>  (10) 
2

>  <tasks>  (10) 
probe_placing close_aromatic_ring close_aromatic_ring close_aromatic_ring

>  <current_task>  (10) 
close_aromatic_ring

>  <prot_clashes>  (10) 
1

>  <NBS phar>  (10) 
0.2

>  <NBS_non-phar>  (10) 
0.8784493605295817

>  <NBS>  (10) 
1.0784493605295817

>  <source_stage>  (10) 
scored

>  <source_iter>  (10) 
3

>  <source_parent_mol>  (10) 
1

>  <source_scenario>  (10) 
1 0 1

>  <source_rank_in_scored_call>  (10) 
0

>  <source_current_task>  (10) 
close_aromatic_ring

>  <scenario>  (10) 
1 0 1

>  <rotatable_bond_torsions>  (10) 
0,1,3,4

>  <reason_to_skip>  (10) 
incorrect arom ring closing

$$$$

     RDKit          3D

  7  6  0  0  0  0  0  0  0  0999 V2000
  -27.8640   -7.4760  -31.1990 C   0  0  0  0  0  0  0  0  0  0  0  0
  -27.5380   -6.7190  -32.2850 N   0  0  0  0  0  0  0  0  0  0  0  0
  -27.6840   -8.8650  -31.2620 N   0  0  0  0  0  0  0  0  0  0  0  0
  -27.8024   -5.3830  -31.8813 C   0  0  0  0  0  0  0  0  0  0  0  0
  -28.2367   -4.9275  -30.7486 C   0  0  0  0  0  0  0  0  0  0  0  0
  -28.6734   -5.6694  -29.5069 C   0  0  0  0  0  0  0  0  0  0  0  0
  -29.1737   -5.0714  -28.4456 C   0  0  0  0  0  0  0  0  0  0  0  0
  1  2  2  3
  1  3  1  0
  2  4  1  0
  4  5  2  3
  5  6  1  0
  6  7  1  0
M  END
>  <name>  (11) 
Car Nac Nd0 Car Car Car Car

>  <indices>  (11) 
[0, 1, 2]

>  <dummy>  (11) 
2

>  <tasks>  (11) 
probe_placing close_aromatic_ring close_aromatic_ring close_aromatic_ring

>  <current_task>  (11) 
close_aromatic_ring

>  <prot_clashes>  (11) 
1

>  <NBS phar>  (11) 
0.2

>  <NBS_non-phar>  (11) 
0.8784493605295817

>  <NBS>  (11) 
1.0784493605295817

>  <source_stage>  (11) 
scored

>  <source_iter>  (11) 
3

>  <source_parent_mol>  (11) 
1

>  <source_scenario>  (11) 
1 0 1

>  <source_rank_in_scored_call>  (11) 
0

>  <source_current_task>  (11) 
close_aromatic_ring

>  <scenario>  (11) 
1 0 1

>  <rotatable_bond_torsions>  (11) 
0,1,3,4

>  <reason_to_skip>  (11) 
incorrect arom ring closing

$$$$

     RDKit          3D

  7  6  0  0  0  0  0  0  0  0999 V2000
  -27.8640   -7.4760  -31.1990 C   0  0  0  0  0  0  0  0  0  0  0  0
  -27.5380   -6.7190  -32.2850 N   0  0  0  0  0  0  0  0  0  0  0  0
  -27.6840   -8.8650  -31.2620 N   0  0  0  0  0  0  0  0  0  0  0  0
  -27.8024   -5.3830  -31.8813 C   0  0  0  0  0  0  0  0  0  0  0  0
  -28.2367   -4.9275  -30.7486 C   0  0  0  0  0  0  0  0  0  0  0  0
  -28.6734   -5.6694  -29.5069 C   0  0  0  0  0  0  0  0  0  0  0  0
  -28.1843   -6.9289  -29.3477 N   0  0  0  0  0  0  0  0  0  0  0  0
  1  2  2  3
  1  3  1  0
  2  4  1  0
  4  5  2  3
  5  6  1  0
  6  7  1  0
M  END
>  <name>  (12) 
Car Nac Nd0 Car Car Car Nac

>  <indices>  (12) 
[0, 1, 2]

>  <dummy>  (12) 
2

>  <tasks>  (12) 
probe_placing close_aromatic_ring close_aromatic_ring close_aromatic_ring

>  <current_task>  (12) 
close_aromatic_ring

>  <prot_clashes>  (12) 
1

>  <NBS phar>  (12) 
0.2

>  <NBS_non-phar>  (12) 
0.8784493605295817

>  <NBS>  (12) 
1.0784493605295817

>  <source_stage>  (12) 
scored

>  <source_iter>  (12) 
3

>  <source_parent_mol>  (12) 
1

>  <source_scenario>  (12) 
1 0 1

>  <source_rank_in_scored_call>  (12) 
0

>  <source_current_task>  (12) 
close_aromatic_ring

>  <scenario>  (12) 
1 0 1

>  <rotatable_bond_torsions>  (12) 
0,1,3,4

>  <reason_to_skip>  (12) 
incorrect arom ring closing

$$$$

     RDKit          3D

  7  6  0  0  0  0  0  0  0  0999 V2000
  -27.8640   -7.4760  -31.1990 C   0  0  0  0  0  0  0  0  0  0  0  0
  -27.5380   -6.7190  -32.2850 N   0  0  0  0  0  0  0  0  0  0  0  0
  -27.6840   -8.8650  -31.2620 N   0  0  0  0  0  0  0  0  0  0  0  0
  -27.8024   -5.3830  -31.8813 C   0  0  0  0  0  0  0  0  0  0  0  0
  -28.2367   -4.9275  -30.7486 C   0  0  0  0  0  0  0  0  0  0  0  0
  -28.6734   -5.6694  -29.5069 C   0  0  0  0  0  0  0  0  0  0  0  0
  -29.4862   -5.3711  -28.4941 C   0  0  0  0  0  0  0  0  0  0  0  0
  1  2  2  3
  1  3  1  0
  2  4  1  0
  4  5  2  3
  5  6  1  0
  6  7  2  0
M  END
>  <name>  (13) 
Car Nac Nd0 Car Car Car Car

>  <indices>  (13) 
[0, 1, 2]

>  <dummy>  (13) 
2

>  <tasks>  (13) 
probe_placing close_aromatic_ring close_aromatic_ring close_aromatic_ring

>  <current_task>  (13) 
close_aromatic_ring

>  <prot_clashes>  (13) 
1

>  <NBS phar>  (13) 
0.2

>  <NBS_non-phar>  (13) 
0.8784493605295817

>  <NBS>  (13) 
1.0784493605295817

>  <source_stage>  (13) 
scored

>  <source_iter>  (13) 
3

>  <source_parent_mol>  (13) 
1

>  <source_scenario>  (13) 
1 0 1

>  <source_rank_in_scored_call>  (13) 
0

>  <source_current_task>  (13) 
close_aromatic_ring

>  <scenario>  (13) 
1 0 1

>  <rotatable_bond_torsions>  (13) 
0,1,3,4

>  <reason_to_skip>  (13) 
incorrect arom ring closing

$$$$

     RDKit          3D

  7  6  0  0  0  0  0  0  0  0999 V2000
  -27.8640   -7.4760  -31.1990 C   0  0  0  0  0  0  0  0  0  0  0  0
  -27.5380   -6.7190  -32.2850 N   0  0  0  0  0  0  0  0  0  0  0  0
  -27.6840   -8.8650  -31.2620 N   0  0  0  0  0  0  0  0  0  0  0  0
  -27.8024   -5.3830  -31.8813 C   0  0  0  0  0  0  0  0  0  0  0  0
  -28.2367   -4.9275  -30.7486 C   0  0  0  0  0  0  0  0  0  0  0  0
  -28.6734   -5.6694  -29.5069 C   0  0  0  0  0  0  0  0  0  0  0  0
  -29.6107   -5.3502  -28.6772 N   0  0  0  0  0  0  0  0  0  0  0  0
  1  2  2  3
  1  3  1  0
  2  4  1  0
  4  5  2  3
  5  6  1  0
  6  7  1  0
M  END
>  <name>  (14) 
Car Nac Nd0 Car Car Car Nac

>  <indices>  (14) 
[0, 1, 2]

>  <dummy>  (14) 
2

>  <tasks>  (14) 
probe_placing close_aromatic_ring close_aromatic_ring close_aromatic_ring

>  <current_task>  (14) 
close_aromatic_ring

>  <prot_clashes>  (14) 
1

>  <NBS phar>  (14) 
0.2

>  <NBS_non-phar>  (14) 
0.8784493605295817

>  <NBS>  (14) 
1.0784493605295817

>  <source_stage>  (14) 
scored

>  <source_iter>  (14) 
3

>  <source_parent_mol>  (14) 
1

>  <source_scenario>  (14) 
1 0 1

>  <source_rank_in_scored_call>  (14) 
0

>  <source_current_task>  (14) 
close_aromatic_ring

>  <scenario>  (14) 
1 0 1

>  <rotatable_bond_torsions>  (14) 
0,1,3,4

>  <reason_to_skip>  (14) 
incorrect arom ring closing

$$$$

     RDKit          3D

  7  6  0  0  0  0  0  0  0  0999 V2000
  -27.8640   -7.4760  -31.1990 C   0  0  0  0  0  0  0  0  0  0  0  0
  -27.5380   -6.7190  -32.2850 N   0  0  0  0  0  0  0  0  0  0  0  0
  -27.6840   -8.8650  -31.2620 N   0  0  0  0  0  0  0  0  0  0  0  0
  -27.8024   -5.3830  -31.8813 C   0  0  0  0  0  0  0  0  0  0  0  0
  -28.2367   -4.9275  -30.7486 C   0  0  0  0  0  0  0  0  0  0  0  0
  -28.6734   -5.6694  -29.5069 C   0  0  0  0  0  0  0  0  0  0  0  0
  -28.2022   -6.9563  -29.2123 C   0  0  0  0  0  0  0  0  0  0  0  0
  1  2  2  3
  1  3  1  0
  2  4  1  0
  4  5  2  3
  5  6  1  0
  6  7  2  0
M  END
>  <name>  (15) 
Car Nac Nd0 Car Car Car Car

>  <indices>  (15) 
[0, 1, 2]

>  <dummy>  (15) 
2

>  <tasks>  (15) 
probe_placing close_aromatic_ring close_aromatic_ring close_aromatic_ring

>  <current_task>  (15) 
close_aromatic_ring

>  <prot_clashes>  (15) 
1

>  <NBS phar>  (15) 
0.2

>  <NBS_non-phar>  (15) 
0.8784493605295817

>  <NBS>  (15) 
1.0784493605295817

>  <source_stage>  (15) 
scored

>  <source_iter>  (15) 
3

>  <source_parent_mol>  (15) 
1

>  <source_scenario>  (15) 
1 0 1

>  <source_rank_in_scored_call>  (15) 
0

>  <source_current_task>  (15) 
close_aromatic_ring

>  <scenario>  (15) 
1 0 1

>  <rotatable_bond_torsions>  (15) 
0,1,3,4

>  <reason_to_skip>  (15) 
incorrect arom ring closing

$$$$

     RDKit          3D

  7  6  0  0  0  0  0  0  0  0999 V2000
  -27.8640   -7.4760  -31.1990 C   0  0  0  0  0  0  0  0  0  0  0  0
  -27.5380   -6.7190  -32.2850 N   0  0  0  0  0  0  0  0  0  0  0  0
  -27.6840   -8.8650  -31.2620 N   0  0  0  0  0  0  0  0  0  0  0  0
  -27.8024   -5.3830  -31.8813 C   0  0  0  0  0  0  0  0  0  0  0  0
  -28.2367   -4.9275  -30.7486 C   0  0  0  0  0  0  0  0  0  0  0  0
  -28.6734   -5.6694  -29.5069 C   0  0  0  0  0  0  0  0  0  0  0  0
  -29.1046   -5.1523  -28.4178 N   0  0  0  0  0  0  0  0  0  0  0  0
  1  2  2  3
  1  3  1  0
  2  4  1  0
  4  5  2  3
  5  6  1  0
  6  7  2  0
M  END
>  <name>  (16) 
Car Nac Nd0 Car Car Car Nac

>  <indices>  (16) 
[0, 1, 2]

>  <dummy>  (16) 
2

>  <tasks>  (16) 
probe_placing close_aromatic_ring close_aromatic_ring close_aromatic_ring

>  <current_task>  (16) 
close_aromatic_ring

>  <prot_clashes>  (16) 
1

>  <NBS phar>  (16) 
0.2

>  <NBS_non-phar>  (16) 
0.8784493605295817

>  <NBS>  (16) 
1.0784493605295817

>  <source_stage>  (16) 
scored

>  <source_iter>  (16) 
3

>  <source_parent_mol>  (16) 
1

>  <source_scenario>  (16) 
1 0 1

>  <source_rank_in_scored_call>  (16) 
0

>  <source_current_task>  (16) 
close_aromatic_ring

>  <scenario>  (16) 
1 0 1

>  <rotatable_bond_torsions>  (16) 
0,1,3,4

>  <reason_to_skip>  (16) 
incorrect arom ring closing

$$$$

     RDKit          3D

  7  6  0  0  0  0  0  0  0  0999 V2000
  -27.8640   -7.4760  -31.1990 C   0  0  0  0  0  0  0  0  0  0  0  0
  -27.5380   -6.7190  -32.2850 N   0  0  0  0  0  0  0  0  0  0  0  0
  -27.6840   -8.8650  -31.2620 N   0  0  0  0  0  0  0  0  0  0  0  0
  -27.8024   -5.3830  -31.8813 C   0  0  0  0  0  0  0  0  0  0  0  0
  -28.2367   -4.9275  -30.7486 C   0  0  0  0  0  0  0  0  0  0  0  0
  -28.6734   -5.6694  -29.5069 C   0  0  0  0  0  0  0  0  0  0  0  0
  -29.1043   -5.1250  -28.4277 N   0  0  0  0  0  0  0  0  0  0  0  0
  1  2  2  3
  1  3  1  0
  2  4  1  0
  4  5  2  3
  5  6  1  0
  6  7  1  0
M  END
>  <name>  (17) 
Car Nac Nd0 Car Car Car Nd0

>  <indices>  (17) 
[0, 1, 2]

>  <dummy>  (17) 
2

>  <tasks>  (17) 
probe_placing close_aromatic_ring close_aromatic_ring close_aromatic_ring

>  <current_task>  (17) 
close_aromatic_ring

>  <prot_clashes>  (17) 
1

>  <NBS phar>  (17) 
0.2

>  <NBS_non-phar>  (17) 
0.8784493605295817

>  <NBS>  (17) 
1.0784493605295817

>  <source_stage>  (17) 
scored

>  <source_iter>  (17) 
3

>  <source_parent_mol>  (17) 
1

>  <source_scenario>  (17) 
1 0 1

>  <source_rank_in_scored_call>  (17) 
0

>  <source_current_task>  (17) 
close_aromatic_ring

>  <scenario>  (17) 
1 0 1

>  <rotatable_bond_torsions>  (17) 
0,1,3,4

>  <reason_to_skip>  (17) 
incorrect arom ring closing

$$$$

     RDKit          3D

  7  6  0  0  0  0  0  0  0  0999 V2000
  -27.8640   -7.4760  -31.1990 C   0  0  0  0  0  0  0  0  0  0  0  0
  -27.5380   -6.7190  -32.2850 N   0  0  0  0  0  0  0  0  0  0  0  0
  -27.6840   -8.8650  -31.2620 N   0  0  0  0  0  0  0  0  0  0  0  0
  -27.8024   -5.3830  -31.8813 C   0  0  0  0  0  0  0  0  0  0  0  0
  -28.2367   -4.9275  -30.7486 C   0  0  0  0  0  0  0  0  0  0  0  0
  -28.6734   -5.6694  -29.5069 C   0  0  0  0  0  0  0  0  0  0  0  0
  -29.1688   -5.0418  -28.2777 C   0  0  0  0  0  0  0  0  0  0  0  0
  1  2  2  3
  1  3  1  0
  2  4  1  0
  4  5  2  3
  5  6  1  0
  6  7  1  0
M  END
>  <name>  (18) 
Car Nac Nd0 Car Car Car Car

>  <indices>  (18) 
[0, 1, 2]

>  <dummy>  (18) 
2

>  <tasks>  (18) 
probe_placing close_aromatic_ring close_aromatic_ring close_aromatic_ring

>  <current_task>  (18) 
close_aromatic_ring

>  <prot_clashes>  (18) 
1

>  <NBS phar>  (18) 
0.2

>  <NBS_non-phar>  (18) 
0.8784493605295817

>  <NBS>  (18) 
1.0784493605295817

>  <source_stage>  (18) 
scored

>  <source_iter>  (18) 
3

>  <source_parent_mol>  (18) 
1

>  <source_scenario>  (18) 
1 0 1

>  <source_rank_in_scored_call>  (18) 
0

>  <source_current_task>  (18) 
close_aromatic_ring

>  <scenario>  (18) 
1 0 1

>  <rotatable_bond_torsions>  (18) 
0,1,3,4

>  <reason_to_skip>  (18) 
incorrect arom ring closing

$$$$

     RDKit          3D

  7  6  0  0  0  0  0  0  0  0999 V2000
  -27.8640   -7.4760  -31.1990 C   0  0  0  0  0  0  0  0  0  0  0  0
  -27.5380   -6.7190  -32.2850 N   0  0  0  0  0  0  0  0  0  0  0  0
  -27.6840   -8.8650  -31.2620 N   0  0  0  0  0  0  0  0  0  0  0  0
  -27.8024   -5.3830  -31.8813 C   0  0  0  0  0  0  0  0  0  0  0  0
  -28.2367   -4.9275  -30.7486 C   0  0  0  0  0  0  0  0  0  0  0  0
  -28.6734   -5.6694  -29.5069 C   0  0  0  0  0  0  0  0  0  0  0  0
    0.0000    0.0000    0.0000 O   0  0  0  0  0  0  0  0  0  0  0  0
  1  2  2  3
  1  3  1  0
  2  4  1  0
  4  5  2  3
  5  6  1  0
  6  7  1  0
M  END
>  <name>  (19) 
Car Nac Nd0 Car Car Car O_a

>  <indices>  (19) 
[0, 1, 2]

>  <dummy>  (19) 
2

>  <tasks>  (19) 
probe_placing close_aromatic_ring close_aromatic_ring close_aromatic_ring

>  <current_task>  (19) 
close_aromatic_ring

>  <prot_clashes>  (19) 
1

>  <NBS phar>  (19) 
0.2

>  <NBS_non-phar>  (19) 
0.8784493605295817

>  <NBS>  (19) 
1.0784493605295817

>  <source_stage>  (19) 
scored

>  <source_iter>  (19) 
3

>  <source_parent_mol>  (19) 
1

>  <source_scenario>  (19) 
1 0 1

>  <source_rank_in_scored_call>  (19) 
0

>  <source_current_task>  (19) 
close_aromatic_ring

>  <scenario>  (19) 
1 0 1

>  <rotatable_bond_torsions>  (19) 
0,1,3,4

>  <reason_to_skip>  (19) 
some_atom_counter_exceeded

$$$$

     RDKit          3D

  7  6  0  0  0  0  0  0  0  0999 V2000
  -27.8640   -7.4760  -31.1990 C   0  0  0  0  0  0  0  0  0  0  0  0
  -27.5380   -6.7190  -32.2850 N   0  0  0  0  0  0  0  0  0  0  0  0
  -27.6840   -8.8650  -31.2620 N   0  0  0  0  0  0  0  0  0  0  0  0
  -27.8024   -5.3830  -31.8813 C   0  0  0  0  0  0  0  0  0  0  0  0
  -28.2367   -4.9275  -30.7486 C   0  0  0  0  0  0  0  0  0  0  0  0
  -28.6734   -5.6694  -29.5069 C   0  0  0  0  0  0  0  0  0  0  0  0
  -28.3939   -7.0344  -30.1604 C   0  0  0  0  0  0  0  0  0  0  0  0
  1  2  2  3
  1  3  1  0
  2  4  1  0
  4  5  2  3
  5  6  1  0
  6  7  2  0
M  END
>  <name>  (20) 
Car Nac Nd0 Car Car Car Car

>  <indices>  (20) 
[0, 1, 2]

>  <dummy>  (20) 
2

>  <tasks>  (20) 
probe_placing close_aromatic_ring close_aromatic_ring close_aromatic_ring

>  <current_task>  (20) 
close_aromatic_ring

>  <prot_clashes>  (20) 
1

>  <NBS phar>  (20) 
0.2

>  <NBS_non-phar>  (20) 
0.8784493605295817

>  <NBS>  (20) 
1.0784493605295817

>  <source_stage>  (20) 
scored

>  <source_iter>  (20) 
3

>  <source_parent_mol>  (20) 
1

>  <source_scenario>  (20) 
1 0 1

>  <source_rank_in_scored_call>  (20) 
0

>  <source_current_task>  (20) 
close_aromatic_ring

>  <scenario>  (20) 
1 0 1

>  <rotatable_bond_torsions>  (20) 
0,1,3,4

>  <reason_to_skip>  (20) 
bad angles

$$$$

     RDKit          3D

  7  6  0  0  0  0  0  0  0  0999 V2000
  -27.8640   -7.4760  -31.1990 C   0  0  0  0  0  0  0  0  0  0  0  0
  -27.5380   -6.7190  -32.2850 N   0  0  0  0  0  0  0  0  0  0  0  0
  -27.6840   -8.8650  -31.2620 N   0  0  0  0  0  0  0  0  0  0  0  0
  -27.8024   -5.3830  -31.8813 C   0  0  0  0  0  0  0  0  0  0  0  0
  -28.2367   -4.9275  -30.7486 C   0  0  0  0  0  0  0  0  0  0  0  0
  -28.6734   -5.6694  -29.5069 C   0  0  0  0  0  0  0  0  0  0  0  0
  -28.3944   -7.0450  -30.1737 C   0  0  0  0  0  0  0  0  0  0  0  0
  1  2  2  3
  1  3  1  0
  2  4  1  0
  4  5  2  3
  5  6  1  0
  6  7  1  0
M  END
>  <name>  (21) 
Car Nac Nd0 Car Car Car Car

>  <indices>  (21) 
[0, 1, 2]

>  <dummy>  (21) 
2

>  <tasks>  (21) 
probe_placing close_aromatic_ring close_aromatic_ring close_aromatic_ring

>  <current_task>  (21) 
close_aromatic_ring

>  <prot_clashes>  (21) 
1

>  <NBS phar>  (21) 
0.2

>  <NBS_non-phar>  (21) 
0.8784493605295817

>  <NBS>  (21) 
1.0784493605295817

>  <source_stage>  (21) 
scored

>  <source_iter>  (21) 
3

>  <source_parent_mol>  (21) 
1

>  <source_scenario>  (21) 
1 0 1

>  <source_rank_in_scored_call>  (21) 
0

>  <source_current_task>  (21) 
close_aromatic_ring

>  <scenario>  (21) 
1 0 1

>  <rotatable_bond_torsions>  (21) 
0,1,3,4

>  <reason_to_skip>  (21) 
bad angles

$$$$

     RDKit          3D

  7  6  0  0  0  0  0  0  0  0999 V2000
  -27.8640   -7.4760  -31.1990 C   0  0  0  0  0  0  0  0  0  0  0  0
  -27.5380   -6.7190  -32.2850 N   0  0  0  0  0  0  0  0  0  0  0  0
  -27.6840   -8.8650  -31.2620 N   0  0  0  0  0  0  0  0  0  0  0  0
  -27.8024   -5.3830  -31.8813 C   0  0  0  0  0  0  0  0  0  0  0  0
  -28.2367   -4.9275  -30.7486 C   0  0  0  0  0  0  0  0  0  0  0  0
  -28.6734   -5.6694  -29.5069 C   0  0  0  0  0  0  0  0  0  0  0  0
  -28.3798   -7.0070  -30.1947 N   0  0  0  0  0  0  0  0  0  0  0  0
  1  2  2  3
  1  3  1  0
  2  4  1  0
  4  5  2  3
  5  6  1  0
  6  7  1  0
M  END
>  <name>  (22) 
Car Nac Nd0 Car Car Car Nac

>  <indices>  (22) 
[0, 1, 2]

>  <dummy>  (22) 
2

>  <tasks>  (22) 
probe_placing close_aromatic_ring close_aromatic_ring close_aromatic_ring

>  <current_task>  (22) 
close_aromatic_ring

>  <prot_clashes>  (22) 
1

>  <NBS phar>  (22) 
0.2

>  <NBS_non-phar>  (22) 
0.8784493605295817

>  <NBS>  (22) 
1.0784493605295817

>  <source_stage>  (22) 
scored

>  <source_iter>  (22) 
3

>  <source_parent_mol>  (22) 
1

>  <source_scenario>  (22) 
1 0 1

>  <source_rank_in_scored_call>  (22) 
0

>  <source_current_task>  (22) 
close_aromatic_ring

>  <scenario>  (22) 
1 0 1

>  <rotatable_bond_torsions>  (22) 
0,1,3,4

>  <reason_to_skip>  (22) 
bad angles

$$$$

     RDKit          3D

  7  6  0  0  0  0  0  0  0  0999 V2000
  -27.8640   -7.4760  -31.1990 C   0  0  0  0  0  0  0  0  0  0  0  0
  -27.5380   -6.7190  -32.2850 N   0  0  0  0  0  0  0  0  0  0  0  0
  -27.6840   -8.8650  -31.2620 N   0  0  0  0  0  0  0  0  0  0  0  0
  -27.8024   -5.3830  -31.8813 C   0  0  0  0  0  0  0  0  0  0  0  0
  -28.2367   -4.9275  -30.7486 C   0  0  0  0  0  0  0  0  0  0  0  0
  -28.6734   -5.6694  -29.5069 C   0  0  0  0  0  0  0  0  0  0  0  0
  -28.3836   -6.9851  -30.1324 N   0  0  0  0  0  0  0  0  0  0  0  0
  1  2  2  3
  1  3  1  0
  2  4  1  0
  4  5  2  3
  5  6  1  0
  6  7  1  0
M  END
>  <name>  (23) 
Car Nac Nd0 Car Car Car Nd0

>  <indices>  (23) 
[0, 1, 2]

>  <dummy>  (23) 
2

>  <tasks>  (23) 
probe_placing close_aromatic_ring close_aromatic_ring close_aromatic_ring

>  <current_task>  (23) 
close_aromatic_ring

>  <prot_clashes>  (23) 
1

>  <NBS phar>  (23) 
0.2

>  <NBS_non-phar>  (23) 
0.8784493605295817

>  <NBS>  (23) 
1.0784493605295817

>  <source_stage>  (23) 
scored

>  <source_iter>  (23) 
3

>  <source_parent_mol>  (23) 
1

>  <source_scenario>  (23) 
1 0 1

>  <source_rank_in_scored_call>  (23) 
0

>  <source_current_task>  (23) 
close_aromatic_ring

>  <scenario>  (23) 
1 0 1

>  <rotatable_bond_torsions>  (23) 
0,1,3,4

>  <reason_to_skip>  (23) 
bad angles

$$$$

     RDKit          3D

  7  6  0  0  0  0  0  0  0  0999 V2000
  -27.8640   -7.4760  -31.1990 C   0  0  0  0  0  0  0  0  0  0  0  0
  -27.5380   -6.7190  -32.2850 N   0  0  0  0  0  0  0  0  0  0  0  0
  -27.6840   -8.8650  -31.2620 N   0  0  0  0  0  0  0  0  0  0  0  0
  -27.8024   -5.3830  -31.8813 C   0  0  0  0  0  0  0  0  0  0  0  0
  -28.2367   -4.9275  -30.7486 C   0  0  0  0  0  0  0  0  0  0  0  0
  -28.6734   -5.6694  -29.5069 C   0  0  0  0  0  0  0  0  0  0  0  0
  -27.9469   -5.7068  -28.3134 N   0  0  0  0  0  0  0  0  0  0  0  0
  1  2  2  3
  1  3  1  0
  2  4  1  0
  4  5  2  3
  5  6  1  0
  6  7  1  0
M  END
>  <name>  (24) 
Car Nac Nd0 Car Car Car Nac

>  <indices>  (24) 
[0, 1, 2]

>  <dummy>  (24) 
2

>  <tasks>  (24) 
probe_placing close_aromatic_ring close_aromatic_ring close_aromatic_ring

>  <current_task>  (24) 
close_aromatic_ring

>  <prot_clashes>  (24) 
1

>  <NBS phar>  (24) 
0.2

>  <NBS_non-phar>  (24) 
0.8784493605295817

>  <NBS>  (24) 
1.0784493605295817

>  <source_stage>  (24) 
scored

>  <source_iter>  (24) 
3

>  <source_parent_mol>  (24) 
1

>  <source_scenario>  (24) 
1 0 1

>  <source_rank_in_scored_call>  (24) 
0

>  <source_current_task>  (24) 
close_aromatic_ring

>  <scenario>  (24) 
1 0 1

>  <rotatable_bond_torsions>  (24) 
0,1,3,4

>  <reason_to_skip>  (24) 
incorrect arom ring closing

$$$$

     RDKit          3D

  7  6  0  0  0  0  0  0  0  0999 V2000
  -27.8640   -7.4760  -31.1990 C   0  0  0  0  0  0  0  0  0  0  0  0
  -27.5380   -6.7190  -32.2850 N   0  0  0  0  0  0  0  0  0  0  0  0
  -27.6840   -8.8650  -31.2620 N   0  0  0  0  0  0  0  0  0  0  0  0
  -27.8024   -5.3830  -31.8813 C   0  0  0  0  0  0  0  0  0  0  0  0
  -28.2367   -4.9275  -30.7486 C   0  0  0  0  0  0  0  0  0  0  0  0
  -28.6734   -5.6694  -29.5069 C   0  0  0  0  0  0  0  0  0  0  0  0
  -28.0539   -5.4051  -28.2663 C   0  0  0  0  0  0  0  0  0  0  0  0
  1  2  2  3
  1  3  1  0
  2  4  1  0
  4  5  2  3
  5  6  1  0
  6  7  1  0
M  END
>  <name>  (25) 
Car Nac Nd0 Car Car Car Car

>  <indices>  (25) 
[0, 1, 2]

>  <dummy>  (25) 
2

>  <tasks>  (25) 
probe_placing close_aromatic_ring close_aromatic_ring close_aromatic_ring

>  <current_task>  (25) 
close_aromatic_ring

>  <prot_clashes>  (25) 
1

>  <NBS phar>  (25) 
0.2

>  <NBS_non-phar>  (25) 
0.8784493605295817

>  <NBS>  (25) 
1.0784493605295817

>  <source_stage>  (25) 
scored

>  <source_iter>  (25) 
3

>  <source_parent_mol>  (25) 
1

>  <source_scenario>  (25) 
1 0 1

>  <source_rank_in_scored_call>  (25) 
0

>  <source_current_task>  (25) 
close_aromatic_ring

>  <scenario>  (25) 
1 0 1

>  <rotatable_bond_torsions>  (25) 
0,1,3,4

>  <reason_to_skip>  (25) 
incorrect arom ring closing

$$$$

     RDKit          3D

  7  6  0  0  0  0  0  0  0  0999 V2000
  -27.8640   -7.4760  -31.1990 C   0  0  0  0  0  0  0  0  0  0  0  0
  -27.5380   -6.7190  -32.2850 N   0  0  0  0  0  0  0  0  0  0  0  0
  -27.6840   -8.8650  -31.2620 N   0  0  0  0  0  0  0  0  0  0  0  0
  -27.8024   -5.3830  -31.8813 C   0  0  0  0  0  0  0  0  0  0  0  0
  -28.2367   -4.9275  -30.7486 C   0  0  0  0  0  0  0  0  0  0  0  0
  -28.6734   -5.6694  -29.5069 C   0  0  0  0  0  0  0  0  0  0  0  0
  -29.8223   -6.4854  -29.4576 N   0  0  0  0  0  0  0  0  0  0  0  0
  1  2  2  3
  1  3  1  0
  2  4  1  0
  4  5  2  3
  5  6  1  0
  6  7  1  0
M  END
>  <name>  (26) 
Car Nac Nd0 Car Car Car Nac

>  <indices>  (26) 
[0, 1, 2]

>  <dummy>  (26) 
2

>  <tasks>  (26) 
probe_placing close_aromatic_ring close_aromatic_ring close_aromatic_ring

>  <current_task>  (26) 
close_aromatic_ring

>  <prot_clashes>  (26) 
1

>  <NBS phar>  (26) 
0.2

>  <NBS_non-phar>  (26) 
0.8784493605295817

>  <NBS>  (26) 
1.0784493605295817

>  <source_stage>  (26) 
scored

>  <source_iter>  (26) 
3

>  <source_parent_mol>  (26) 
1

>  <source_scenario>  (26) 
1 0 1

>  <source_rank_in_scored_call>  (26) 
0

>  <source_current_task>  (26) 
close_aromatic_ring

>  <scenario>  (26) 
1 0 1

>  <rotatable_bond_torsions>  (26) 
0,1,3,4

>  <reason_to_skip>  (26) 
incorrect arom ring closing

$$$$

     RDKit          3D

  7  6  0  0  0  0  0  0  0  0999 V2000
  -27.8640   -7.4760  -31.1990 C   0  0  0  0  0  0  0  0  0  0  0  0
  -27.5380   -6.7190  -32.2850 N   0  0  0  0  0  0  0  0  0  0  0  0
  -27.6840   -8.8650  -31.2620 N   0  0  0  0  0  0  0  0  0  0  0  0
  -27.8024   -5.3830  -31.8813 C   0  0  0  0  0  0  0  0  0  0  0  0
  -28.2367   -4.9275  -30.7486 C   0  0  0  0  0  0  0  0  0  0  0  0
  -28.6734   -5.6694  -29.5069 C   0  0  0  0  0  0  0  0  0  0  0  0
  -28.0203   -5.6917  -28.3191 N   0  0  0  0  0  0  0  0  0  0  0  0
  1  2  2  3
  1  3  1  0
  2  4  1  0
  4  5  2  3
  5  6  1  0
  6  7  2  0
M  END
>  <name>  (27) 
Car Nac Nd0 Car Car Car Nac

>  <indices>  (27) 
[0, 1, 2]

>  <dummy>  (27) 
2

>  <tasks>  (27) 
probe_placing close_aromatic_ring close_aromatic_ring close_aromatic_ring

>  <current_task>  (27) 
close_aromatic_ring

>  <prot_clashes>  (27) 
1

>  <NBS phar>  (27) 
0.2

>  <NBS_non-phar>  (27) 
0.8784493605295817

>  <NBS>  (27) 
1.0784493605295817

>  <source_stage>  (27) 
scored

>  <source_iter>  (27) 
3

>  <source_parent_mol>  (27) 
1

>  <source_scenario>  (27) 
1 0 1

>  <source_rank_in_scored_call>  (27) 
0

>  <source_current_task>  (27) 
close_aromatic_ring

>  <scenario>  (27) 
1 0 1

>  <rotatable_bond_torsions>  (27) 
0,1,3,4

>  <reason_to_skip>  (27) 
incorrect arom ring closing

$$$$

     RDKit          3D

  7  6  0  0  0  0  0  0  0  0999 V2000
  -27.8640   -7.4760  -31.1990 C   0  0  0  0  0  0  0  0  0  0  0  0
  -27.5380   -6.7190  -32.2850 N   0  0  0  0  0  0  0  0  0  0  0  0
  -27.6840   -8.8650  -31.2620 N   0  0  0  0  0  0  0  0  0  0  0  0
  -27.8024   -5.3830  -31.8813 C   0  0  0  0  0  0  0  0  0  0  0  0
  -28.2367   -4.9275  -30.7486 C   0  0  0  0  0  0  0  0  0  0  0  0
  -28.6734   -5.6694  -29.5069 C   0  0  0  0  0  0  0  0  0  0  0  0
  -28.0824   -5.5713  -28.2905 N   0  0  0  0  0  0  0  0  0  0  0  0
  1  2  2  3
  1  3  1  0
  2  4  1  0
  4  5  2  3
  5  6  1  0
  6  7  1  0
M  END
>  <name>  (28) 
Car Nac Nd0 Car Car Car Nd0

>  <indices>  (28) 
[0, 1, 2]

>  <dummy>  (28) 
2

>  <tasks>  (28) 
probe_placing close_aromatic_ring close_aromatic_ring close_aromatic_ring

>  <current_task>  (28) 
close_aromatic_ring

>  <prot_clashes>  (28) 
1

>  <NBS phar>  (28) 
0.2

>  <NBS_non-phar>  (28) 
0.8784493605295817

>  <NBS>  (28) 
1.0784493605295817

>  <source_stage>  (28) 
scored

>  <source_iter>  (28) 
3

>  <source_parent_mol>  (28) 
1

>  <source_scenario>  (28) 
1 0 1

>  <source_rank_in_scored_call>  (28) 
0

>  <source_current_task>  (28) 
close_aromatic_ring

>  <scenario>  (28) 
1 0 1

>  <rotatable_bond_torsions>  (28) 
0,1,3,4

>  <reason_to_skip>  (28) 
incorrect arom ring closing

$$$$

     RDKit          3D

  7  6  0  0  0  0  0  0  0  0999 V2000
  -27.8640   -7.4760  -31.1990 C   0  0  0  0  0  0  0  0  0  0  0  0
  -27.5380   -6.7190  -32.2850 N   0  0  0  0  0  0  0  0  0  0  0  0
  -27.6840   -8.8650  -31.2620 N   0  0  0  0  0  0  0  0  0  0  0  0
  -27.8024   -5.3830  -31.8813 C   0  0  0  0  0  0  0  0  0  0  0  0
  -28.2367   -4.9275  -30.7486 C   0  0  0  0  0  0  0  0  0  0  0  0
  -28.6734   -5.6694  -29.5069 C   0  0  0  0  0  0  0  0  0  0  0  0
    0.0000    0.0000    0.0000 O   0  0  0  0  0  0  0  0  0  0  0  0
  1  2  2  3
  1  3  1  0
  2  4  1  0
  4  5  2  3
  5  6  1  0
  6  7  1  0
M  END
>  <name>  (29) 
Car Nac Nd0 Car Car Car O_a

>  <indices>  (29) 
[0, 1, 2]

>  <dummy>  (29) 
2

>  <tasks>  (29) 
probe_placing close_aromatic_ring close_aromatic_ring close_aromatic_ring

>  <current_task>  (29) 
close_aromatic_ring

>  <prot_clashes>  (29) 
1

>  <NBS phar>  (29) 
0.2

>  <NBS_non-phar>  (29) 
0.8784493605295817

>  <NBS>  (29) 
1.0784493605295817

>  <source_stage>  (29) 
scored

>  <source_iter>  (29) 
3

>  <source_parent_mol>  (29) 
1

>  <source_scenario>  (29) 
1 0 1

>  <source_rank_in_scored_call>  (29) 
0

>  <source_current_task>  (29) 
close_aromatic_ring

>  <scenario>  (29) 
1 0 1

>  <rotatable_bond_torsions>  (29) 
0,1,3,4

>  <reason_to_skip>  (29) 
some_atom_counter_exceeded

$$$$

     RDKit          3D

  7  6  0  0  0  0  0  0  0  0999 V2000
  -27.8640   -7.4760  -31.1990 C   0  0  0  0  0  0  0  0  0  0  0  0
  -27.5380   -6.7190  -32.2850 N   0  0  0  0  0  0  0  0  0  0  0  0
  -27.6840   -8.8650  -31.2620 N   0  0  0  0  0  0  0  0  0  0  0  0
  -27.8024   -5.3830  -31.8813 C   0  0  0  0  0  0  0  0  0  0  0  0
  -28.2367   -4.9275  -30.7486 C   0  0  0  0  0  0  0  0  0  0  0  0
  -28.6734   -5.6694  -29.5069 C   0  0  0  0  0  0  0  0  0  0  0  0
  -29.8570   -6.4120  -29.3462 C   0  0  0  0  0  0  0  0  0  0  0  0
  1  2  2  3
  1  3  1  0
  2  4  1  0
  4  5  2  3
  5  6  1  0
  6  7  2  0
M  END
>  <name>  (30) 
Car Nac Nd0 Car Car Car Car

>  <indices>  (30) 
[0, 1, 2]

>  <dummy>  (30) 
2

>  <tasks>  (30) 
probe_placing close_aromatic_ring close_aromatic_ring close_aromatic_ring

>  <current_task>  (30) 
close_aromatic_ring

>  <prot_clashes>  (30) 
1

>  <NBS phar>  (30) 
0.2

>  <NBS_non-phar>  (30) 
0.8784493605295817

>  <NBS>  (30) 
1.0784493605295817

>  <source_stage>  (30) 
scored

>  <source_iter>  (30) 
3

>  <source_parent_mol>  (30) 
1

>  <source_scenario>  (30) 
1 0 1

>  <source_rank_in_scored_call>  (30) 
0

>  <source_current_task>  (30) 
close_aromatic_ring

>  <scenario>  (30) 
1 0 1

>  <rotatable_bond_torsions>  (30) 
0,1,3,4

>  <reason_to_skip>  (30) 
incorrect arom ring closing

$$$$

     RDKit          3D

  7  6  0  0  0  0  0  0  0  0999 V2000
  -27.8640   -7.4760  -31.1990 C   0  0  0  0  0  0  0  0  0  0  0  0
  -27.5380   -6.7190  -32.2850 N   0  0  0  0  0  0  0  0  0  0  0  0
  -27.6840   -8.8650  -31.2620 N   0  0  0  0  0  0  0  0  0  0  0  0
  -27.8024   -5.3830  -31.8813 C   0  0  0  0  0  0  0  0  0  0  0  0
  -28.2367   -4.9275  -30.7486 C   0  0  0  0  0  0  0  0  0  0  0  0
  -28.6734   -5.6694  -29.5069 C   0  0  0  0  0  0  0  0  0  0  0  0
  -27.9065   -5.7198  -28.3823 C   0  0  0  0  0  0  0  0  0  0  0  0
  1  2  2  3
  1  3  1  0
  2  4  1  0
  4  5  2  3
  5  6  1  0
  6  7  1  0
M  END
>  <name>  (31) 
Car Nac Nd0 Car Car Car Car

>  <indices>  (31) 
[0, 1, 2]

>  <dummy>  (31) 
2

>  <tasks>  (31) 
probe_placing close_aromatic_ring close_aromatic_ring close_aromatic_ring

>  <current_task>  (31) 
close_aromatic_ring

>  <prot_clashes>  (31) 
1

>  <NBS phar>  (31) 
0.2

>  <NBS_non-phar>  (31) 
0.8784493605295817

>  <NBS>  (31) 
1.0784493605295817

>  <source_stage>  (31) 
scored

>  <source_iter>  (31) 
3

>  <source_parent_mol>  (31) 
1

>  <source_scenario>  (31) 
1 0 1

>  <source_rank_in_scored_call>  (31) 
0

>  <source_current_task>  (31) 
close_aromatic_ring

>  <scenario>  (31) 
1 0 1

>  <rotatable_bond_torsions>  (31) 
0,1,3,4

>  <reason_to_skip>  (31) 
incorrect arom ring closing

$$$$

     RDKit          3D

  7  6  0  0  0  0  0  0  0  0999 V2000
  -27.8640   -7.4760  -31.1990 C   0  0  0  0  0  0  0  0  0  0  0  0
  -27.5380   -6.7190  -32.2850 N   0  0  0  0  0  0  0  0  0  0  0  0
  -27.6840   -8.8650  -31.2620 N   0  0  0  0  0  0  0  0  0  0  0  0
  -27.8024   -5.3830  -31.8813 C   0  0  0  0  0  0  0  0  0  0  0  0
  -28.2367   -4.9275  -30.7486 C   0  0  0  0  0  0  0  0  0  0  0  0
  -28.6734   -5.6694  -29.5069 C   0  0  0  0  0  0  0  0  0  0  0  0
  -27.7481   -6.2989  -28.6877 C   0  0  0  0  0  0  0  0  0  0  0  0
  1  2  2  3
  1  3  1  0
  2  4  1  0
  4  5  2  3
  5  6  1  0
  6  7  2  0
M  END
>  <name>  (32) 
Car Nac Nd0 Car Car Car Car

>  <indices>  (32) 
[0, 1, 2]

>  <dummy>  (32) 
2

>  <tasks>  (32) 
probe_placing close_aromatic_ring close_aromatic_ring close_aromatic_ring

>  <current_task>  (32) 
close_aromatic_ring

>  <prot_clashes>  (32) 
1

>  <NBS phar>  (32) 
0.2

>  <NBS_non-phar>  (32) 
0.8784493605295817

>  <NBS>  (32) 
1.0784493605295817

>  <source_stage>  (32) 
scored

>  <source_iter>  (32) 
3

>  <source_parent_mol>  (32) 
1

>  <source_scenario>  (32) 
1 0 1

>  <source_rank_in_scored_call>  (32) 
0

>  <source_current_task>  (32) 
close_aromatic_ring

>  <scenario>  (32) 
1 0 1

>  <rotatable_bond_torsions>  (32) 
0,1,3,4

>  <reason_to_skip>  (32) 
incorrect arom ring closing

$$$$

     RDKit          3D

  7  6  0  0  0  0  0  0  0  0999 V2000
  -27.8640   -7.4760  -31.1990 C   0  0  0  0  0  0  0  0  0  0  0  0
  -27.5380   -6.7190  -32.2850 N   0  0  0  0  0  0  0  0  0  0  0  0
  -27.6840   -8.8650  -31.2620 N   0  0  0  0  0  0  0  0  0  0  0  0
  -27.8024   -5.3830  -31.8813 C   0  0  0  0  0  0  0  0  0  0  0  0
  -28.2367   -4.9275  -30.7486 C   0  0  0  0  0  0  0  0  0  0  0  0
  -28.6734   -5.6694  -29.5069 C   0  0  0  0  0  0  0  0  0  0  0  0
    0.0000    0.0000    0.0000 S   0  0  0  0  0  0  0  0  0  0  0  0
  1  2  2  3
  1  3  1  0
  2  4  1  0
  4  5  2  3
  5  6  1  0
  6  7  1  0
M  END
>  <name>  (33) 
Car Nac Nd0 Car Car Car Sul

>  <indices>  (33) 
[0, 1, 2]

>  <dummy>  (33) 
2

>  <tasks>  (33) 
probe_placing close_aromatic_ring close_aromatic_ring close_aromatic_ring

>  <current_task>  (33) 
close_aromatic_ring

>  <prot_clashes>  (33) 
1

>  <NBS phar>  (33) 
0.2

>  <NBS_non-phar>  (33) 
0.8784493605295817

>  <NBS>  (33) 
1.0784493605295817

>  <source_stage>  (33) 
scored

>  <source_iter>  (33) 
3

>  <source_parent_mol>  (33) 
1

>  <source_scenario>  (33) 
1 0 1

>  <source_rank_in_scored_call>  (33) 
0

>  <source_current_task>  (33) 
close_aromatic_ring

>  <scenario>  (33) 
1 0 1

>  <rotatable_bond_torsions>  (33) 
0,1,3,4

>  <reason_to_skip>  (33) 
some_atom_counter_exceeded

$$$$

     RDKit          3D

  7  6  0  0  0  0  0  0  0  0999 V2000
  -27.8640   -7.4760  -31.1990 C   0  0  0  0  0  0  0  0  0  0  0  0
  -27.5380   -6.7190  -32.2850 N   0  0  0  0  0  0  0  0  0  0  0  0
  -27.6840   -8.8650  -31.2620 N   0  0  0  0  0  0  0  0  0  0  0  0
  -27.8024   -5.3830  -31.8813 C   0  0  0  0  0  0  0  0  0  0  0  0
  -28.2367   -4.9275  -30.7486 C   0  0  0  0  0  0  0  0  0  0  0  0
  -28.6734   -5.6694  -29.5069 C   0  0  0  0  0  0  0  0  0  0  0  0
    0.0000    0.0000    0.0000 S   0  0  0  0  0  0  0  0  0  0  0  0
  1  2  2  3
  1  3  1  0
  2  4  1  0
  4  5  2  3
  5  6  1  0
  6  7  1  0
M  END
>  <name>  (34) 
Car Nac Nd0 Car Car Car Sul

>  <indices>  (34) 
[0, 1, 2]

>  <dummy>  (34) 
2

>  <tasks>  (34) 
probe_placing close_aromatic_ring close_aromatic_ring close_aromatic_ring

>  <current_task>  (34) 
close_aromatic_ring

>  <prot_clashes>  (34) 
1

>  <NBS phar>  (34) 
0.2

>  <NBS_non-phar>  (34) 
0.8784493605295817

>  <NBS>  (34) 
1.0784493605295817

>  <source_stage>  (34) 
scored

>  <source_iter>  (34) 
3

>  <source_parent_mol>  (34) 
1

>  <source_scenario>  (34) 
1 0 1

>  <source_rank_in_scored_call>  (34) 
0

>  <source_current_task>  (34) 
close_aromatic_ring

>  <scenario>  (34) 
1 0 1

>  <rotatable_bond_torsions>  (34) 
0,1,3,4

>  <reason_to_skip>  (34) 
some_atom_counter_exceeded

$$$$

     RDKit          3D

  7  6  0  0  0  0  0  0  0  0999 V2000
  -27.8640   -7.4760  -31.1990 C   0  0  0  0  0  0  0  0  0  0  0  0
  -27.5380   -6.7190  -32.2850 N   0  0  0  0  0  0  0  0  0  0  0  0
  -27.6840   -8.8650  -31.2620 N   0  0  0  0  0  0  0  0  0  0  0  0
  -27.8024   -5.3830  -31.8813 C   0  0  0  0  0  0  0  0  0  0  0  0
  -28.2367   -4.9275  -30.7486 C   0  0  0  0  0  0  0  0  0  0  0  0
  -28.6734   -5.6694  -29.5069 C   0  0  0  0  0  0  0  0  0  0  0  0
  -28.5507   -5.1334  -28.3278 N   0  0  0  0  0  0  0  0  0  0  0  0
  1  2  2  3
  1  3  1  0
  2  4  1  0
  4  5  2  3
  5  6  1  0
  6  7  2  0
M  END
>  <name>  (35) 
Car Nac Nd0 Car Car Car Nac

>  <indices>  (35) 
[0, 1, 2]

>  <dummy>  (35) 
2

>  <tasks>  (35) 
probe_placing close_aromatic_ring close_aromatic_ring close_aromatic_ring

>  <current_task>  (35) 
close_aromatic_ring

>  <prot_clashes>  (35) 
1

>  <NBS phar>  (35) 
0.2

>  <NBS_non-phar>  (35) 
0.8784493605295817

>  <NBS>  (35) 
1.0784493605295817

>  <source_stage>  (35) 
scored

>  <source_iter>  (35) 
3

>  <source_parent_mol>  (35) 
1

>  <source_scenario>  (35) 
1 0 1

>  <source_rank_in_scored_call>  (35) 
0

>  <source_current_task>  (35) 
close_aromatic_ring

>  <scenario>  (35) 
1 0 1

>  <rotatable_bond_torsions>  (35) 
0,1,3,4

>  <reason_to_skip>  (35) 
incorrect arom ring closing

$$$$

     RDKit          3D

  7  6  0  0  0  0  0  0  0  0999 V2000
  -27.8640   -7.4760  -31.1990 C   0  0  0  0  0  0  0  0  0  0  0  0
  -27.5380   -6.7190  -32.2850 N   0  0  0  0  0  0  0  0  0  0  0  0
  -27.6840   -8.8650  -31.2620 N   0  0  0  0  0  0  0  0  0  0  0  0
  -27.8024   -5.3830  -31.8813 C   0  0  0  0  0  0  0  0  0  0  0  0
  -28.2367   -4.9275  -30.7486 C   0  0  0  0  0  0  0  0  0  0  0  0
  -28.6734   -5.6694  -29.5069 C   0  0  0  0  0  0  0  0  0  0  0  0
    0.0000    0.0000    0.0000 O   0  0  0  0  0  0  0  0  0  0  0  0
  1  2  2  3
  1  3  1  0
  2  4  1  0
  4  5  2  3
  5  6  1  0
  6  7  1  0
M  END
>  <name>  (36) 
Car Nac Nd0 Car Car Car O_a

>  <indices>  (36) 
[0, 1, 2]

>  <dummy>  (36) 
2

>  <tasks>  (36) 
probe_placing close_aromatic_ring close_aromatic_ring close_aromatic_ring

>  <current_task>  (36) 
close_aromatic_ring

>  <prot_clashes>  (36) 
1

>  <NBS phar>  (36) 
0.2

>  <NBS_non-phar>  (36) 
0.8784493605295817

>  <NBS>  (36) 
1.0784493605295817

>  <source_stage>  (36) 
scored

>  <source_iter>  (36) 
3

>  <source_parent_mol>  (36) 
1

>  <source_scenario>  (36) 
1 0 1

>  <source_rank_in_scored_call>  (36) 
0

>  <source_current_task>  (36) 
close_aromatic_ring

>  <scenario>  (36) 
1 0 1

>  <rotatable_bond_torsions>  (36) 
0,1,3,4

>  <reason_to_skip>  (36) 
some_atom_counter_exceeded

$$$$

     RDKit          3D

  7  6  0  0  0  0  0  0  0  0999 V2000
  -27.8640   -7.4760  -31.1990 C   0  0  0  0  0  0  0  0  0  0  0  0
  -27.5380   -6.7190  -32.2850 N   0  0  0  0  0  0  0  0  0  0  0  0
  -27.6840   -8.8650  -31.2620 N   0  0  0  0  0  0  0  0  0  0  0  0
  -27.8024   -5.3830  -31.8813 C   0  0  0  0  0  0  0  0  0  0  0  0
  -28.2367   -4.9275  -30.7486 C   0  0  0  0  0  0  0  0  0  0  0  0
  -28.6734   -5.6694  -29.5069 C   0  0  0  0  0  0  0  0  0  0  0  0
    0.0000    0.0000    0.0000 O   0  0  0  0  0  0  0  0  0  0  0  0
  1  2  2  3
  1  3  1  0
  2  4  1  0
  4  5  2  3
  5  6  1  0
  6  7  1  0
M  END
>  <name>  (37) 
Car Nac Nd0 Car Car Car O_a

>  <indices>  (37) 
[0, 1, 2]

>  <dummy>  (37) 
2

>  <tasks>  (37) 
probe_placing close_aromatic_ring close_aromatic_ring close_aromatic_ring

>  <current_task>  (37) 
close_aromatic_ring

>  <prot_clashes>  (37) 
1

>  <NBS phar>  (37) 
0.2

>  <NBS_non-phar>  (37) 
0.8784493605295817

>  <NBS>  (37) 
1.0784493605295817

>  <source_stage>  (37) 
scored

>  <source_iter>  (37) 
3

>  <source_parent_mol>  (37) 
1

>  <source_scenario>  (37) 
1 0 1

>  <source_rank_in_scored_call>  (37) 
0

>  <source_current_task>  (37) 
close_aromatic_ring

>  <scenario>  (37) 
1 0 1

>  <rotatable_bond_torsions>  (37) 
0,1,3,4

>  <reason_to_skip>  (37) 
some_atom_counter_exceeded

$$$$

     RDKit          3D

  7  6  0  0  0  0  0  0  0  0999 V2000
  -27.8640   -7.4760  -31.1990 C   0  0  0  0  0  0  0  0  0  0  0  0
  -27.5380   -6.7190  -32.2850 N   0  0  0  0  0  0  0  0  0  0  0  0
  -27.6840   -8.8650  -31.2620 N   0  0  0  0  0  0  0  0  0  0  0  0
  -27.8024   -5.3830  -31.8813 C   0  0  0  0  0  0  0  0  0  0  0  0
  -28.2367   -4.9275  -30.7486 C   0  0  0  0  0  0  0  0  0  0  0  0
  -28.6734   -5.6694  -29.5069 C   0  0  0  0  0  0  0  0  0  0  0  0
  -30.1303   -5.8526  -28.6476 C   0  0  0  0  0  0  0  0  0  0  0  0
  1  2  2  3
  1  3  1  0
  2  4  1  0
  4  5  2  3
  5  6  1  0
  6  7  1  0
M  END
>  <name>  (38) 
Car Nac Nd0 Car Car Car Car

>  <indices>  (38) 
[0, 1, 2]

>  <dummy>  (38) 
2

>  <tasks>  (38) 
probe_placing close_aromatic_ring close_aromatic_ring close_aromatic_ring

>  <current_task>  (38) 
close_aromatic_ring

>  <prot_clashes>  (38) 
1

>  <NBS phar>  (38) 
0.2

>  <NBS_non-phar>  (38) 
0.8784493605295817

>  <NBS>  (38) 
1.0784493605295817

>  <source_stage>  (38) 
scored

>  <source_iter>  (38) 
3

>  <source_parent_mol>  (38) 
1

>  <source_scenario>  (38) 
1 0 1

>  <source_rank_in_scored_call>  (38) 
0

>  <source_current_task>  (38) 
close_aromatic_ring

>  <scenario>  (38) 
1 0 1

>  <rotatable_bond_torsions>  (38) 
0,1,3,4

>  <reason_to_skip>  (38) 
bad angles

$$$$

     RDKit          3D

  7  6  0  0  0  0  0  0  0  0999 V2000
  -27.8640   -7.4760  -31.1990 C   0  0  0  0  0  0  0  0  0  0  0  0
  -27.5380   -6.7190  -32.2850 N   0  0  0  0  0  0  0  0  0  0  0  0
  -27.6840   -8.8650  -31.2620 N   0  0  0  0  0  0  0  0  0  0  0  0
  -27.8024   -5.3830  -31.8813 C   0  0  0  0  0  0  0  0  0  0  0  0
  -28.2367   -4.9275  -30.7486 C   0  0  0  0  0  0  0  0  0  0  0  0
  -28.6734   -5.6694  -29.5069 C   0  0  0  0  0  0  0  0  0  0  0  0
    0.0000    0.0000    0.0000 S   0  0  0  0  0  0  0  0  0  0  0  0
  1  2  2  3
  1  3  1  0
  2  4  1  0
  4  5  2  3
  5  6  1  0
  6  7  1  0
M  END
>  <name>  (39) 
Car Nac Nd0 Car Car Car Sul

>  <indices>  (39) 
[0, 1, 2]

>  <dummy>  (39) 
2

>  <tasks>  (39) 
probe_placing close_aromatic_ring close_aromatic_ring close_aromatic_ring

>  <current_task>  (39) 
close_aromatic_ring

>  <prot_clashes>  (39) 
1

>  <NBS phar>  (39) 
0.2

>  <NBS_non-phar>  (39) 
0.8784493605295817

>  <NBS>  (39) 
1.0784493605295817

>  <source_stage>  (39) 
scored

>  <source_iter>  (39) 
3

>  <source_parent_mol>  (39) 
1

>  <source_scenario>  (39) 
1 0 1

>  <source_rank_in_scored_call>  (39) 
0

>  <source_current_task>  (39) 
close_aromatic_ring

>  <scenario>  (39) 
1 0 1

>  <rotatable_bond_torsions>  (39) 
0,1,3,4

>  <reason_to_skip>  (39) 
some_atom_counter_exceeded

$$$$

     RDKit          3D

  7  6  0  0  0  0  0  0  0  0999 V2000
  -27.8640   -7.4760  -31.1990 C   0  0  0  0  0  0  0  0  0  0  0  0
  -27.5380   -6.7190  -32.2850 N   0  0  0  0  0  0  0  0  0  0  0  0
  -27.6840   -8.8650  -31.2620 N   0  0  0  0  0  0  0  0  0  0  0  0
  -27.8024   -5.3830  -31.8813 C   0  0  0  0  0  0  0  0  0  0  0  0
  -28.2367   -4.9275  -30.7486 C   0  0  0  0  0  0  0  0  0  0  0  0
  -28.6734   -5.6694  -29.5069 C   0  0  0  0  0  0  0  0  0  0  0  0
  -27.6040   -5.7468  -28.6758 N   0  0  0  0  0  0  0  0  0  0  0  0
  1  2  2  3
  1  3  1  0
  2  4  1  0
  4  5  2  3
  5  6  1  0
  6  7  1  0
M  END
>  <name>  (40) 
Car Nac Nd0 Car Car Car Nd0

>  <indices>  (40) 
[0, 1, 2]

>  <dummy>  (40) 
2

>  <tasks>  (40) 
probe_placing close_aromatic_ring close_aromatic_ring close_aromatic_ring

>  <current_task>  (40) 
close_aromatic_ring

>  <prot_clashes>  (40) 
1

>  <NBS phar>  (40) 
0.2

>  <NBS_non-phar>  (40) 
0.8784493605295817

>  <NBS>  (40) 
1.0784493605295817

>  <source_stage>  (40) 
scored

>  <source_iter>  (40) 
3

>  <source_parent_mol>  (40) 
1

>  <source_scenario>  (40) 
1 0 1

>  <source_rank_in_scored_call>  (40) 
0

>  <source_current_task>  (40) 
close_aromatic_ring

>  <scenario>  (40) 
1 0 1

>  <rotatable_bond_torsions>  (40) 
0,1,3,4

>  <reason_to_skip>  (40) 
incorrect arom ring closing

$$$$

     RDKit          3D

  7  6  0  0  0  0  0  0  0  0999 V2000
  -27.8640   -7.4760  -31.1990 C   0  0  0  0  0  0  0  0  0  0  0  0
  -27.5380   -6.7190  -32.2850 N   0  0  0  0  0  0  0  0  0  0  0  0
  -27.6840   -8.8650  -31.2620 N   0  0  0  0  0  0  0  0  0  0  0  0
  -27.8024   -5.3830  -31.8813 C   0  0  0  0  0  0  0  0  0  0  0  0
  -28.2367   -4.9275  -30.7486 C   0  0  0  0  0  0  0  0  0  0  0  0
  -28.6734   -5.6694  -29.5069 C   0  0  0  0  0  0  0  0  0  0  0  0
    0.0000    0.0000    0.0000 S   0  0  0  0  0  0  0  0  0  0  0  0
  1  2  2  3
  1  3  1  0
  2  4  1  0
  4  5  2  3
  5  6  1  0
  6  7  1  0
M  END
>  <name>  (41) 
Car Nac Nd0 Car Car Car Sul

>  <indices>  (41) 
[0, 1, 2]

>  <dummy>  (41) 
2

>  <tasks>  (41) 
probe_placing close_aromatic_ring close_aromatic_ring close_aromatic_ring

>  <current_task>  (41) 
close_aromatic_ring

>  <prot_clashes>  (41) 
1

>  <NBS phar>  (41) 
0.2

>  <NBS_non-phar>  (41) 
0.8784493605295817

>  <NBS>  (41) 
1.0784493605295817

>  <source_stage>  (41) 
scored

>  <source_iter>  (41) 
3

>  <source_parent_mol>  (41) 
1

>  <source_scenario>  (41) 
1 0 1

>  <source_rank_in_scored_call>  (41) 
0

>  <source_current_task>  (41) 
close_aromatic_ring

>  <scenario>  (41) 
1 0 1

>  <rotatable_bond_torsions>  (41) 
0,1,3,4

>  <reason_to_skip>  (41) 
some_atom_counter_exceeded

$$$$

     RDKit          3D

  7  6  0  0  0  0  0  0  0  0999 V2000
  -27.8640   -7.4760  -31.1990 C   0  0  0  0  0  0  0  0  0  0  0  0
  -27.5380   -6.7190  -32.2850 N   0  0  0  0  0  0  0  0  0  0  0  0
  -27.6840   -8.8650  -31.2620 N   0  0  0  0  0  0  0  0  0  0  0  0
  -27.8024   -5.3830  -31.8813 C   0  0  0  0  0  0  0  0  0  0  0  0
  -28.2367   -4.9275  -30.7486 C   0  0  0  0  0  0  0  0  0  0  0  0
  -28.6734   -5.6694  -29.5069 C   0  0  0  0  0  0  0  0  0  0  0  0
    0.0000    0.0000    0.0000 S   0  0  0  0  0  0  0  0  0  0  0  0
  1  2  2  3
  1  3  1  0
  2  4  1  0
  4  5  2  3
  5  6  1  0
  6  7  1  0
M  END
>  <name>  (42) 
Car Nac Nd0 Car Car Car Sul

>  <indices>  (42) 
[0, 1, 2]

>  <dummy>  (42) 
2

>  <tasks>  (42) 
probe_placing close_aromatic_ring close_aromatic_ring close_aromatic_ring

>  <current_task>  (42) 
close_aromatic_ring

>  <prot_clashes>  (42) 
1

>  <NBS phar>  (42) 
0.2

>  <NBS_non-phar>  (42) 
0.8784493605295817

>  <NBS>  (42) 
1.0784493605295817

>  <source_stage>  (42) 
scored

>  <source_iter>  (42) 
3

>  <source_parent_mol>  (42) 
1

>  <source_scenario>  (42) 
1 0 1

>  <source_rank_in_scored_call>  (42) 
0

>  <source_current_task>  (42) 
close_aromatic_ring

>  <scenario>  (42) 
1 0 1

>  <rotatable_bond_torsions>  (42) 
0,1,3,4

>  <reason_to_skip>  (42) 
some_atom_counter_exceeded

$$$$

     RDKit          3D

  7  6  0  0  0  0  0  0  0  0999 V2000
  -27.8640   -7.4760  -31.1990 C   0  0  0  0  0  0  0  0  0  0  0  0
  -27.5380   -6.7190  -32.2850 N   0  0  0  0  0  0  0  0  0  0  0  0
  -27.6840   -8.8650  -31.2620 N   0  0  0  0  0  0  0  0  0  0  0  0
  -27.8024   -5.3830  -31.8813 C   0  0  0  0  0  0  0  0  0  0  0  0
  -28.2367   -4.9275  -30.7486 C   0  0  0  0  0  0  0  0  0  0  0  0
  -28.6734   -5.6694  -29.5069 C   0  0  0  0  0  0  0  0  0  0  0  0
    0.0000    0.0000    0.0000 S   0  0  0  0  0  0  0  0  0  0  0  0
  1  2  2  3
  1  3  1  0
  2  4  1  0
  4  5  2  3
  5  6  1  0
  6  7  1  0
M  END
>  <name>  (43) 
Car Nac Nd0 Car Car Car Sul

>  <indices>  (43) 
[0, 1, 2]

>  <dummy>  (43) 
2

>  <tasks>  (43) 
probe_placing close_aromatic_ring close_aromatic_ring close_aromatic_ring

>  <current_task>  (43) 
close_aromatic_ring

>  <prot_clashes>  (43) 
1

>  <NBS phar>  (43) 
0.2

>  <NBS_non-phar>  (43) 
0.8784493605295817

>  <NBS>  (43) 
1.0784493605295817

>  <source_stage>  (43) 
scored

>  <source_iter>  (43) 
3

>  <source_parent_mol>  (43) 
1

>  <source_scenario>  (43) 
1 0 1

>  <source_rank_in_scored_call>  (43) 
0

>  <source_current_task>  (43) 
close_aromatic_ring

>  <scenario>  (43) 
1 0 1

>  <rotatable_bond_torsions>  (43) 
0,1,3,4

>  <reason_to_skip>  (43) 
some_atom_counter_exceeded

$$$$

     RDKit          3D

  7  6  0  0  0  0  0  0  0  0999 V2000
  -27.8640   -7.4760  -31.1990 C   0  0  0  0  0  0  0  0  0  0  0  0
  -27.5380   -6.7190  -32.2850 N   0  0  0  0  0  0  0  0  0  0  0  0
  -27.6840   -8.8650  -31.2620 N   0  0  0  0  0  0  0  0  0  0  0  0
  -27.8024   -5.3830  -31.8813 C   0  0  0  0  0  0  0  0  0  0  0  0
  -28.2367   -4.9275  -30.7486 C   0  0  0  0  0  0  0  0  0  0  0  0
  -28.6734   -5.6694  -29.5069 C   0  0  0  0  0  0  0  0  0  0  0  0
  -29.9365   -5.9234  -29.0711 N   0  0  0  0  0  0  0  0  0  0  0  0
  1  2  2  3
  1  3  1  0
  2  4  1  0
  4  5  2  3
  5  6  1  0
  6  7  2  0
M  END
>  <name>  (44) 
Car Nac Nd0 Car Car Car Nac

>  <indices>  (44) 
[0, 1, 2]

>  <dummy>  (44) 
2

>  <tasks>  (44) 
probe_placing close_aromatic_ring close_aromatic_ring close_aromatic_ring

>  <current_task>  (44) 
close_aromatic_ring

>  <prot_clashes>  (44) 
1

>  <NBS phar>  (44) 
0.2

>  <NBS_non-phar>  (44) 
0.8784493605295817

>  <NBS>  (44) 
1.0784493605295817

>  <source_stage>  (44) 
scored

>  <source_iter>  (44) 
3

>  <source_parent_mol>  (44) 
1

>  <source_scenario>  (44) 
1 0 1

>  <source_rank_in_scored_call>  (44) 
0

>  <source_current_task>  (44) 
close_aromatic_ring

>  <scenario>  (44) 
1 0 1

>  <rotatable_bond_torsions>  (44) 
0,1,3,4

>  <reason_to_skip>  (44) 
incorrect arom ring closing

$$$$

     RDKit          3D

  7  6  0  0  0  0  0  0  0  0999 V2000
  -27.8640   -7.4760  -31.1990 C   0  0  0  0  0  0  0  0  0  0  0  0
  -27.5380   -6.7190  -32.2850 N   0  0  0  0  0  0  0  0  0  0  0  0
  -27.6840   -8.8650  -31.2620 N   0  0  0  0  0  0  0  0  0  0  0  0
  -27.8024   -5.3830  -31.8813 C   0  0  0  0  0  0  0  0  0  0  0  0
  -28.2367   -4.9275  -30.7486 C   0  0  0  0  0  0  0  0  0  0  0  0
  -28.6734   -5.6694  -29.5069 C   0  0  0  0  0  0  0  0  0  0  0  0
  -29.9806   -6.1743  -29.4482 C   0  0  0  0  0  0  0  0  0  0  0  0
  1  2  2  3
  1  3  1  0
  2  4  1  0
  4  5  2  3
  5  6  1  0
  6  7  1  0
M  END
>  <name>  (45) 
Car Nac Nd0 Car Car Car Car

>  <indices>  (45) 
[0, 1, 2]

>  <dummy>  (45) 
2

>  <tasks>  (45) 
probe_placing close_aromatic_ring close_aromatic_ring close_aromatic_ring

>  <current_task>  (45) 
close_aromatic_ring

>  <prot_clashes>  (45) 
1

>  <NBS phar>  (45) 
0.2

>  <NBS_non-phar>  (45) 
0.8784493605295817

>  <NBS>  (45) 
1.0784493605295817

>  <source_stage>  (45) 
scored

>  <source_iter>  (45) 
3

>  <source_parent_mol>  (45) 
1

>  <source_scenario>  (45) 
1 0 1

>  <source_rank_in_scored_call>  (45) 
0

>  <source_current_task>  (45) 
close_aromatic_ring

>  <scenario>  (45) 
1 0 1

>  <rotatable_bond_torsions>  (45) 
0,1,3,4

>  <reason_to_skip>  (45) 
incorrect arom ring closing

$$$$

     RDKit          3D

  7  6  0  0  0  0  0  0  0  0999 V2000
  -27.8640   -7.4760  -31.1990 C   0  0  0  0  0  0  0  0  0  0  0  0
  -27.5380   -6.7190  -32.2850 N   0  0  0  0  0  0  0  0  0  0  0  0
  -27.6840   -8.8650  -31.2620 N   0  0  0  0  0  0  0  0  0  0  0  0
  -27.8024   -5.3830  -31.8813 C   0  0  0  0  0  0  0  0  0  0  0  0
  -28.2367   -4.9275  -30.7486 C   0  0  0  0  0  0  0  0  0  0  0  0
  -28.6734   -5.6694  -29.5069 C   0  0  0  0  0  0  0  0  0  0  0  0
  -29.8953   -6.3616  -29.4949 C   0  0  0  0  0  0  0  0  0  0  0  0
  1  2  2  3
  1  3  1  0
  2  4  1  0
  4  5  2  3
  5  6  1  0
  6  7  1  0
M  END
>  <name>  (46) 
Car Nac Nd0 Car Car Car Car

>  <indices>  (46) 
[0, 1, 2]

>  <dummy>  (46) 
2

>  <tasks>  (46) 
probe_placing close_aromatic_ring close_aromatic_ring close_aromatic_ring

>  <current_task>  (46) 
close_aromatic_ring

>  <prot_clashes>  (46) 
1

>  <NBS phar>  (46) 
0.2

>  <NBS_non-phar>  (46) 
0.8784493605295817

>  <NBS>  (46) 
1.0784493605295817

>  <source_stage>  (46) 
scored

>  <source_iter>  (46) 
3

>  <source_parent_mol>  (46) 
1

>  <source_scenario>  (46) 
1 0 1

>  <source_rank_in_scored_call>  (46) 
0

>  <source_current_task>  (46) 
close_aromatic_ring

>  <scenario>  (46) 
1 0 1

>  <rotatable_bond_torsions>  (46) 
0,1,3,4

>  <reason_to_skip>  (46) 
incorrect arom ring closing

$$$$

     RDKit          3D

  7  6  0  0  0  0  0  0  0  0999 V2000
  -27.8640   -7.4760  -31.1990 C   0  0  0  0  0  0  0  0  0  0  0  0
  -27.5380   -6.7190  -32.2850 N   0  0  0  0  0  0  0  0  0  0  0  0
  -27.6840   -8.8650  -31.2620 N   0  0  0  0  0  0  0  0  0  0  0  0
  -27.8024   -5.3830  -31.8813 C   0  0  0  0  0  0  0  0  0  0  0  0
  -28.2367   -4.9275  -30.7486 C   0  0  0  0  0  0  0  0  0  0  0  0
  -28.6734   -5.6694  -29.5069 C   0  0  0  0  0  0  0  0  0  0  0  0
  -27.8879   -5.8468  -28.4174 N   0  0  0  0  0  0  0  0  0  0  0  0
  1  2  2  3
  1  3  1  0
  2  4  1  0
  4  5  2  3
  5  6  1  0
  6  7  1  0
M  END
>  <name>  (47) 
Car Nac Nd0 Car Car Car Nd0

>  <indices>  (47) 
[0, 1, 2]

>  <dummy>  (47) 
2

>  <tasks>  (47) 
probe_placing close_aromatic_ring close_aromatic_ring close_aromatic_ring

>  <current_task>  (47) 
close_aromatic_ring

>  <prot_clashes>  (47) 
1

>  <NBS phar>  (47) 
0.2

>  <NBS_non-phar>  (47) 
0.8784493605295817

>  <NBS>  (47) 
1.0784493605295817

>  <source_stage>  (47) 
scored

>  <source_iter>  (47) 
3

>  <source_parent_mol>  (47) 
1

>  <source_scenario>  (47) 
1 0 1

>  <source_rank_in_scored_call>  (47) 
0

>  <source_current_task>  (47) 
close_aromatic_ring

>  <scenario>  (47) 
1 0 1

>  <rotatable_bond_torsions>  (47) 
0,1,3,4

>  <reason_to_skip>  (47) 
incorrect arom ring closing

$$$$

     RDKit          3D

  7  6  0  0  0  0  0  0  0  0999 V2000
  -27.8640   -7.4760  -31.1990 C   0  0  0  0  0  0  0  0  0  0  0  0
  -27.5380   -6.7190  -32.2850 N   0  0  0  0  0  0  0  0  0  0  0  0
  -27.6840   -8.8650  -31.2620 N   0  0  0  0  0  0  0  0  0  0  0  0
  -27.8024   -5.3830  -31.8813 C   0  0  0  0  0  0  0  0  0  0  0  0
  -28.2367   -4.9275  -30.7486 C   0  0  0  0  0  0  0  0  0  0  0  0
  -28.6734   -5.6694  -29.5069 C   0  0  0  0  0  0  0  0  0  0  0  0
  -27.9946   -5.7747  -28.3400 N   0  0  0  0  0  0  0  0  0  0  0  0
  1  2  2  3
  1  3  1  0
  2  4  1  0
  4  5  2  3
  5  6  1  0
  6  7  1  0
M  END
>  <name>  (48) 
Car Nac Nd0 Car Car Car Nac

>  <indices>  (48) 
[0, 1, 2]

>  <dummy>  (48) 
2

>  <tasks>  (48) 
probe_placing close_aromatic_ring close_aromatic_ring close_aromatic_ring

>  <current_task>  (48) 
close_aromatic_ring

>  <prot_clashes>  (48) 
1

>  <NBS phar>  (48) 
0.2

>  <NBS_non-phar>  (48) 
0.8784493605295817

>  <NBS>  (48) 
1.0784493605295817

>  <source_stage>  (48) 
scored

>  <source_iter>  (48) 
3

>  <source_parent_mol>  (48) 
1

>  <source_scenario>  (48) 
1 0 1

>  <source_rank_in_scored_call>  (48) 
0

>  <source_current_task>  (48) 
close_aromatic_ring

>  <scenario>  (48) 
1 0 1

>  <rotatable_bond_torsions>  (48) 
0,1,3,4

>  <reason_to_skip>  (48) 
incorrect arom ring closing

$$$$

     RDKit          3D

  7  6  0  0  0  0  0  0  0  0999 V2000
  -27.8640   -7.4760  -31.1990 C   0  0  0  0  0  0  0  0  0  0  0  0
  -27.5380   -6.7190  -32.2850 N   0  0  0  0  0  0  0  0  0  0  0  0
  -27.6840   -8.8650  -31.2620 N   0  0  0  0  0  0  0  0  0  0  0  0
  -27.8024   -5.3830  -31.8813 C   0  0  0  0  0  0  0  0  0  0  0  0
  -28.2367   -4.9275  -30.7486 C   0  0  0  0  0  0  0  0  0  0  0  0
  -28.6734   -5.6694  -29.5069 C   0  0  0  0  0  0  0  0  0  0  0  0
    0.0000    0.0000    0.0000 S   0  0  0  0  0  0  0  0  0  0  0  0
  1  2  2  3
  1  3  1  0
  2  4  1  0
  4  5  2  3
  5  6  1  0
  6  7  1  0
M  END
>  <name>  (49) 
Car Nac Nd0 Car Car Car Sul

>  <indices>  (49) 
[0, 1, 2]

>  <dummy>  (49) 
2

>  <tasks>  (49) 
probe_placing close_aromatic_ring close_aromatic_ring close_aromatic_ring

>  <current_task>  (49) 
close_aromatic_ring

>  <prot_clashes>  (49) 
1

>  <NBS phar>  (49) 
0.2

>  <NBS_non-phar>  (49) 
0.8784493605295817

>  <NBS>  (49) 
1.0784493605295817

>  <source_stage>  (49) 
scored

>  <source_iter>  (49) 
3

>  <source_parent_mol>  (49) 
1

>  <source_scenario>  (49) 
1 0 1

>  <source_rank_in_scored_call>  (49) 
0

>  <source_current_task>  (49) 
close_aromatic_ring

>  <scenario>  (49) 
1 0 1

>  <rotatable_bond_torsions>  (49) 
0,1,3,4

>  <reason_to_skip>  (49) 
some_atom_counter_exceeded

$$$$

     RDKit          3D

  7  6  0  0  0  0  0  0  0  0999 V2000
  -27.8640   -7.4760  -31.1990 C   0  0  0  0  0  0  0  0  0  0  0  0
  -27.5380   -6.7190  -32.2850 N   0  0  0  0  0  0  0  0  0  0  0  0
  -27.6840   -8.8650  -31.2620 N   0  0  0  0  0  0  0  0  0  0  0  0
  -27.8024   -5.3830  -31.8813 C   0  0  0  0  0  0  0  0  0  0  0  0
  -28.2367   -4.9275  -30.7486 C   0  0  0  0  0  0  0  0  0  0  0  0
  -28.6734   -5.6694  -29.5069 C   0  0  0  0  0  0  0  0  0  0  0  0
    0.0000    0.0000    0.0000 S   0  0  0  0  0  0  0  0  0  0  0  0
  1  2  2  3
  1  3  1  0
  2  4  1  0
  4  5  2  3
  5  6  1  0
  6  7  1  0
M  END
>  <name>  (50) 
Car Nac Nd0 Car Car Car Sul

>  <indices>  (50) 
[0, 1, 2]

>  <dummy>  (50) 
2

>  <tasks>  (50) 
probe_placing close_aromatic_ring close_aromatic_ring close_aromatic_ring

>  <current_task>  (50) 
close_aromatic_ring

>  <prot_clashes>  (50) 
1

>  <NBS phar>  (50) 
0.2

>  <NBS_non-phar>  (50) 
0.8784493605295817

>  <NBS>  (50) 
1.0784493605295817

>  <source_stage>  (50) 
scored

>  <source_iter>  (50) 
3

>  <source_parent_mol>  (50) 
1

>  <source_scenario>  (50) 
1 0 1

>  <source_rank_in_scored_call>  (50) 
0

>  <source_current_task>  (50) 
close_aromatic_ring

>  <scenario>  (50) 
1 0 1

>  <rotatable_bond_torsions>  (50) 
0,1,3,4

>  <reason_to_skip>  (50) 
some_atom_counter_exceeded

$$$$

     RDKit          3D

  7  6  0  0  0  0  0  0  0  0999 V2000
  -27.8640   -7.4760  -31.1990 C   0  0  0  0  0  0  0  0  0  0  0  0
  -27.5380   -6.7190  -32.2850 N   0  0  0  0  0  0  0  0  0  0  0  0
  -27.6840   -8.8650  -31.2620 N   0  0  0  0  0  0  0  0  0  0  0  0
  -27.8024   -5.3830  -31.8813 C   0  0  0  0  0  0  0  0  0  0  0  0
  -28.2367   -4.9275  -30.7486 C   0  0  0  0  0  0  0  0  0  0  0  0
  -28.6734   -5.6694  -29.5069 C   0  0  0  0  0  0  0  0  0  0  0  0
  -29.8809   -5.7282  -29.2184 N   0  0  0  0  0  0  0  0  0  0  0  0
  1  2  2  3
  1  3  1  0
  2  4  1  0
  4  5  2  3
  5  6  1  0
  6  7  1  0
M  END
>  <name>  (51) 
Car Nac Nd0 Car Car Car Nd0

>  <indices>  (51) 
[0, 1, 2]

>  <dummy>  (51) 
2

>  <tasks>  (51) 
probe_placing close_aromatic_ring close_aromatic_ring close_aromatic_ring

>  <current_task>  (51) 
close_aromatic_ring

>  <prot_clashes>  (51) 
1

>  <NBS phar>  (51) 
0.2

>  <NBS_non-phar>  (51) 
0.8784493605295817

>  <NBS>  (51) 
1.0784493605295817

>  <source_stage>  (51) 
scored

>  <source_iter>  (51) 
3

>  <source_parent_mol>  (51) 
1

>  <source_scenario>  (51) 
1 0 1

>  <source_rank_in_scored_call>  (51) 
0

>  <source_current_task>  (51) 
close_aromatic_ring

>  <scenario>  (51) 
1 0 1

>  <rotatable_bond_torsions>  (51) 
0,1,3,4

>  <reason_to_skip>  (51) 
incorrect arom ring closing

$$$$

     RDKit          3D

  7  6  0  0  0  0  0  0  0  0999 V2000
  -27.8640   -7.4760  -31.1990 C   0  0  0  0  0  0  0  0  0  0  0  0
  -27.5380   -6.7190  -32.2850 N   0  0  0  0  0  0  0  0  0  0  0  0
  -27.6840   -8.8650  -31.2620 N   0  0  0  0  0  0  0  0  0  0  0  0
  -27.8024   -5.3830  -31.8813 C   0  0  0  0  0  0  0  0  0  0  0  0
  -28.2367   -4.9275  -30.7486 C   0  0  0  0  0  0  0  0  0  0  0  0
  -28.6734   -5.6694  -29.5069 C   0  0  0  0  0  0  0  0  0  0  0  0
    0.0000    0.0000    0.0000 O   0  0  0  0  0  0  0  0  0  0  0  0
  1  2  2  3
  1  3  1  0
  2  4  1  0
  4  5  2  3
  5  6  1  0
  6  7  1  0
M  END
>  <name>  (52) 
Car Nac Nd0 Car Car Car O_a

>  <indices>  (52) 
[0, 1, 2]

>  <dummy>  (52) 
2

>  <tasks>  (52) 
probe_placing close_aromatic_ring close_aromatic_ring close_aromatic_ring

>  <current_task>  (52) 
close_aromatic_ring

>  <prot_clashes>  (52) 
1

>  <NBS phar>  (52) 
0.2

>  <NBS_non-phar>  (52) 
0.8784493605295817

>  <NBS>  (52) 
1.0784493605295817

>  <source_stage>  (52) 
scored

>  <source_iter>  (52) 
3

>  <source_parent_mol>  (52) 
1

>  <source_scenario>  (52) 
1 0 1

>  <source_rank_in_scored_call>  (52) 
0

>  <source_current_task>  (52) 
close_aromatic_ring

>  <scenario>  (52) 
1 0 1

>  <rotatable_bond_torsions>  (52) 
0,1,3,4

>  <reason_to_skip>  (52) 
some_atom_counter_exceeded

$$$$

     RDKit          3D

  7  6  0  0  0  0  0  0  0  0999 V2000
  -27.8640   -7.4760  -31.1990 C   0  0  0  0  0  0  0  0  0  0  0  0
  -27.5380   -6.7190  -32.2850 N   0  0  0  0  0  0  0  0  0  0  0  0
  -27.6840   -8.8650  -31.2620 N   0  0  0  0  0  0  0  0  0  0  0  0
  -27.8024   -5.3830  -31.8813 C   0  0  0  0  0  0  0  0  0  0  0  0
  -28.2367   -4.9275  -30.7486 C   0  0  0  0  0  0  0  0  0  0  0  0
  -28.6734   -5.6694  -29.5069 C   0  0  0  0  0  0  0  0  0  0  0  0
    0.0000    0.0000    0.0000 O   0  0  0  0  0  0  0  0  0  0  0  0
  1  2  2  3
  1  3  1  0
  2  4  1  0
  4  5  2  3
  5  6  1  0
  6  7  1  0
M  END
>  <name>  (53) 
Car Nac Nd0 Car Car Car O_a

>  <indices>  (53) 
[0, 1, 2]

>  <dummy>  (53) 
2

>  <tasks>  (53) 
probe_placing close_aromatic_ring close_aromatic_ring close_aromatic_ring

>  <current_task>  (53) 
close_aromatic_ring

>  <prot_clashes>  (53) 
1

>  <NBS phar>  (53) 
0.2

>  <NBS_non-phar>  (53) 
0.8784493605295817

>  <NBS>  (53) 
1.0784493605295817

>  <source_stage>  (53) 
scored

>  <source_iter>  (53) 
3

>  <source_parent_mol>  (53) 
1

>  <source_scenario>  (53) 
1 0 1

>  <source_rank_in_scored_call>  (53) 
0

>  <source_current_task>  (53) 
close_aromatic_ring

>  <scenario>  (53) 
1 0 1

>  <rotatable_bond_torsions>  (53) 
0,1,3,4

>  <reason_to_skip>  (53) 
some_atom_counter_exceeded

$$$$

     RDKit          3D

  7  6  0  0  0  0  0  0  0  0999 V2000
  -27.8640   -7.4760  -31.1990 C   0  0  0  0  0  0  0  0  0  0  0  0
  -27.5380   -6.7190  -32.2850 N   0  0  0  0  0  0  0  0  0  0  0  0
  -27.6840   -8.8650  -31.2620 N   0  0  0  0  0  0  0  0  0  0  0  0
  -27.8024   -5.3830  -31.8813 C   0  0  0  0  0  0  0  0  0  0  0  0
  -28.2367   -4.9275  -30.7486 C   0  0  0  0  0  0  0  0  0  0  0  0
  -28.6734   -5.6694  -29.5069 C   0  0  0  0  0  0  0  0  0  0  0  0
  -30.0695   -5.7821  -29.1869 C   0  0  0  0  0  0  0  0  0  0  0  0
  1  2  2  3
  1  3  1  0
  2  4  1  0
  4  5  2  3
  5  6  1  0
  6  7  1  0
M  END
>  <name>  (54) 
Car Nac Nd0 Car Car Car Car

>  <indices>  (54) 
[0, 1, 2]

>  <dummy>  (54) 
2

>  <tasks>  (54) 
probe_placing close_aromatic_ring close_aromatic_ring close_aromatic_ring

>  <current_task>  (54) 
close_aromatic_ring

>  <prot_clashes>  (54) 
1

>  <NBS phar>  (54) 
0.2

>  <NBS_non-phar>  (54) 
0.8784493605295817

>  <NBS>  (54) 
1.0784493605295817

>  <source_stage>  (54) 
scored

>  <source_iter>  (54) 
3

>  <source_parent_mol>  (54) 
1

>  <source_scenario>  (54) 
1 0 1

>  <source_rank_in_scored_call>  (54) 
0

>  <source_current_task>  (54) 
close_aromatic_ring

>  <scenario>  (54) 
1 0 1

>  <rotatable_bond_torsions>  (54) 
0,1,3,4

>  <reason_to_skip>  (54) 
incorrect arom ring closing

$$$$

     RDKit          3D

  7  6  0  0  0  0  0  0  0  0999 V2000
  -27.8640   -7.4760  -31.1990 C   0  0  0  0  0  0  0  0  0  0  0  0
  -27.5380   -6.7190  -32.2850 N   0  0  0  0  0  0  0  0  0  0  0  0
  -27.6840   -8.8650  -31.2620 N   0  0  0  0  0  0  0  0  0  0  0  0
  -27.8024   -5.3830  -31.8813 C   0  0  0  0  0  0  0  0  0  0  0  0
  -28.2367   -4.9275  -30.7486 C   0  0  0  0  0  0  0  0  0  0  0  0
  -28.6734   -5.6694  -29.5069 C   0  0  0  0  0  0  0  0  0  0  0  0
  -27.8533   -6.3711  -28.6874 N   0  0  0  0  0  0  0  0  0  0  0  0
  1  2  2  3
  1  3  1  0
  2  4  1  0
  4  5  2  3
  5  6  1  0
  6  7  2  0
M  END
>  <name>  (55) 
Car Nac Nd0 Car Car Car Nac

>  <indices>  (55) 
[0, 1, 2]

>  <dummy>  (55) 
2

>  <tasks>  (55) 
probe_placing close_aromatic_ring close_aromatic_ring close_aromatic_ring

>  <current_task>  (55) 
close_aromatic_ring

>  <prot_clashes>  (55) 
1

>  <NBS phar>  (55) 
0.2

>  <NBS_non-phar>  (55) 
0.8784493605295817

>  <NBS>  (55) 
1.0784493605295817

>  <source_stage>  (55) 
scored

>  <source_iter>  (55) 
3

>  <source_parent_mol>  (55) 
1

>  <source_scenario>  (55) 
1 0 1

>  <source_rank_in_scored_call>  (55) 
0

>  <source_current_task>  (55) 
close_aromatic_ring

>  <scenario>  (55) 
1 0 1

>  <rotatable_bond_torsions>  (55) 
0,1,3,4

>  <reason_to_skip>  (55) 
incorrect arom ring closing

$$$$

     RDKit          3D

  7  6  0  0  0  0  0  0  0  0999 V2000
  -27.8640   -7.4760  -31.1990 C   0  0  0  0  0  0  0  0  0  0  0  0
  -27.5380   -6.7190  -32.2850 N   0  0  0  0  0  0  0  0  0  0  0  0
  -27.6840   -8.8650  -31.2620 N   0  0  0  0  0  0  0  0  0  0  0  0
  -27.8024   -5.3830  -31.8813 C   0  0  0  0  0  0  0  0  0  0  0  0
  -28.2367   -4.9275  -30.7486 C   0  0  0  0  0  0  0  0  0  0  0  0
  -28.6734   -5.6694  -29.5069 C   0  0  0  0  0  0  0  0  0  0  0  0
    0.0000    0.0000    0.0000 S   0  0  0  0  0  0  0  0  0  0  0  0
  1  2  2  3
  1  3  1  0
  2  4  1  0
  4  5  2  3
  5  6  1  0
  6  7  1  0
M  END
>  <name>  (56) 
Car Nac Nd0 Car Car Car Sul

>  <indices>  (56) 
[0, 1, 2]

>  <dummy>  (56) 
2

>  <tasks>  (56) 
probe_placing close_aromatic_ring close_aromatic_ring close_aromatic_ring

>  <current_task>  (56) 
close_aromatic_ring

>  <prot_clashes>  (56) 
1

>  <NBS phar>  (56) 
0.2

>  <NBS_non-phar>  (56) 
0.8784493605295817

>  <NBS>  (56) 
1.0784493605295817

>  <source_stage>  (56) 
scored

>  <source_iter>  (56) 
3

>  <source_parent_mol>  (56) 
1

>  <source_scenario>  (56) 
1 0 1

>  <source_rank_in_scored_call>  (56) 
0

>  <source_current_task>  (56) 
close_aromatic_ring

>  <scenario>  (56) 
1 0 1

>  <rotatable_bond_torsions>  (56) 
0,1,3,4

>  <reason_to_skip>  (56) 
some_atom_counter_exceeded

$$$$

     RDKit          3D

  7  6  0  0  0  0  0  0  0  0999 V2000
  -27.8640   -7.4760  -31.1990 C   0  0  0  0  0  0  0  0  0  0  0  0
  -27.5380   -6.7190  -32.2850 N   0  0  0  0  0  0  0  0  0  0  0  0
  -27.6840   -8.8650  -31.2620 N   0  0  0  0  0  0  0  0  0  0  0  0
  -27.8024   -5.3830  -31.8813 C   0  0  0  0  0  0  0  0  0  0  0  0
  -28.2367   -4.9275  -30.7486 C   0  0  0  0  0  0  0  0  0  0  0  0
  -28.6734   -5.6694  -29.5069 C   0  0  0  0  0  0  0  0  0  0  0  0
  -27.8942   -5.3155  -28.3316 C   0  0  0  0  0  0  0  0  0  0  0  0
  1  2  2  3
  1  3  1  0
  2  4  1  0
  4  5  2  3
  5  6  1  0
  6  7  1  0
M  END
>  <name>  (57) 
Car Nac Nd0 Car Car Car Car

>  <indices>  (57) 
[0, 1, 2]

>  <dummy>  (57) 
2

>  <tasks>  (57) 
probe_placing close_aromatic_ring close_aromatic_ring close_aromatic_ring

>  <current_task>  (57) 
close_aromatic_ring

>  <prot_clashes>  (57) 
1

>  <NBS phar>  (57) 
0.2

>  <NBS_non-phar>  (57) 
0.8784493605295817

>  <NBS>  (57) 
1.0784493605295817

>  <source_stage>  (57) 
scored

>  <source_iter>  (57) 
3

>  <source_parent_mol>  (57) 
1

>  <source_scenario>  (57) 
1 0 1

>  <source_rank_in_scored_call>  (57) 
0

>  <source_current_task>  (57) 
close_aromatic_ring

>  <scenario>  (57) 
1 0 1

>  <rotatable_bond_torsions>  (57) 
0,1,3,4

>  <reason_to_skip>  (57) 
incorrect arom ring closing

$$$$

     RDKit          3D

  7  6  0  0  0  0  0  0  0  0999 V2000
  -27.8640   -7.4760  -31.1990 C   0  0  0  0  0  0  0  0  0  0  0  0
  -27.5380   -6.7190  -32.2850 N   0  0  0  0  0  0  0  0  0  0  0  0
  -27.6840   -8.8650  -31.2620 N   0  0  0  0  0  0  0  0  0  0  0  0
  -27.8024   -5.3830  -31.8813 C   0  0  0  0  0  0  0  0  0  0  0  0
  -28.2367   -4.9275  -30.7486 C   0  0  0  0  0  0  0  0  0  0  0  0
  -28.6734   -5.6694  -29.5069 C   0  0  0  0  0  0  0  0  0  0  0  0
    0.0000    0.0000    0.0000 S   0  0  0  0  0  0  0  0  0  0  0  0
  1  2  2  3
  1  3  1  0
  2  4  1  0
  4  5  2  3
  5  6  1  0
  6  7  1  0
M  END
>  <name>  (58) 
Car Nac Nd0 Car Car Car Sul

>  <indices>  (58) 
[0, 1, 2]

>  <dummy>  (58) 
2

>  <tasks>  (58) 
probe_placing close_aromatic_ring close_aromatic_ring close_aromatic_ring

>  <current_task>  (58) 
close_aromatic_ring

>  <prot_clashes>  (58) 
1

>  <NBS phar>  (58) 
0.2

>  <NBS_non-phar>  (58) 
0.8784493605295817

>  <NBS>  (58) 
1.0784493605295817

>  <source_stage>  (58) 
scored

>  <source_iter>  (58) 
3

>  <source_parent_mol>  (58) 
1

>  <source_scenario>  (58) 
1 0 1

>  <source_rank_in_scored_call>  (58) 
0

>  <source_current_task>  (58) 
close_aromatic_ring

>  <scenario>  (58) 
1 0 1

>  <rotatable_bond_torsions>  (58) 
0,1,3,4

>  <reason_to_skip>  (58) 
some_atom_counter_exceeded

$$$$

     RDKit          3D

  7  6  0  0  0  0  0  0  0  0999 V2000
  -27.8640   -7.4760  -31.1990 C   0  0  0  0  0  0  0  0  0  0  0  0
  -27.5380   -6.7190  -32.2850 N   0  0  0  0  0  0  0  0  0  0  0  0
  -27.6840   -8.8650  -31.2620 N   0  0  0  0  0  0  0  0  0  0  0  0
  -27.8024   -5.3830  -31.8813 C   0  0  0  0  0  0  0  0  0  0  0  0
  -28.2367   -4.9275  -30.7486 C   0  0  0  0  0  0  0  0  0  0  0  0
  -28.6734   -5.6694  -29.5069 C   0  0  0  0  0  0  0  0  0  0  0  0
  -29.8318   -6.4186  -29.4564 N   0  0  0  0  0  0  0  0  0  0  0  0
  1  2  2  3
  1  3  1  0
  2  4  1  0
  4  5  2  3
  5  6  1  0
  6  7  2  0
M  END
>  <name>  (59) 
Car Nac Nd0 Car Car Car Nac

>  <indices>  (59) 
[0, 1, 2]

>  <dummy>  (59) 
2

>  <tasks>  (59) 
probe_placing close_aromatic_ring close_aromatic_ring close_aromatic_ring

>  <current_task>  (59) 
close_aromatic_ring

>  <prot_clashes>  (59) 
1

>  <NBS phar>  (59) 
0.2

>  <NBS_non-phar>  (59) 
0.8784493605295817

>  <NBS>  (59) 
1.0784493605295817

>  <source_stage>  (59) 
scored

>  <source_iter>  (59) 
3

>  <source_parent_mol>  (59) 
1

>  <source_scenario>  (59) 
1 0 1

>  <source_rank_in_scored_call>  (59) 
0

>  <source_current_task>  (59) 
close_aromatic_ring

>  <scenario>  (59) 
1 0 1

>  <rotatable_bond_torsions>  (59) 
0,1,3,4

>  <reason_to_skip>  (59) 
incorrect arom ring closing

$$$$

     RDKit          3D

  7  6  0  0  0  0  0  0  0  0999 V2000
  -27.8640   -7.4760  -31.1990 C   0  0  0  0  0  0  0  0  0  0  0  0
  -27.5380   -6.7190  -32.2850 N   0  0  0  0  0  0  0  0  0  0  0  0
  -27.6840   -8.8650  -31.2620 N   0  0  0  0  0  0  0  0  0  0  0  0
  -27.8024   -5.3830  -31.8813 C   0  0  0  0  0  0  0  0  0  0  0  0
  -28.2367   -4.9275  -30.7486 C   0  0  0  0  0  0  0  0  0  0  0  0
  -28.6734   -5.6694  -29.5069 C   0  0  0  0  0  0  0  0  0  0  0  0
    0.0000    0.0000    0.0000 O   0  0  0  0  0  0  0  0  0  0  0  0
  1  2  2  3
  1  3  1  0
  2  4  1  0
  4  5  2  3
  5  6  1  0
  6  7  1  0
M  END
>  <name>  (60) 
Car Nac Nd0 Car Car Car O_a

>  <indices>  (60) 
[0, 1, 2]

>  <dummy>  (60) 
2

>  <tasks>  (60) 
probe_placing close_aromatic_ring close_aromatic_ring close_aromatic_ring

>  <current_task>  (60) 
close_aromatic_ring

>  <prot_clashes>  (60) 
1

>  <NBS phar>  (60) 
0.2

>  <NBS_non-phar>  (60) 
0.8784493605295817

>  <NBS>  (60) 
1.0784493605295817

>  <source_stage>  (60) 
scored

>  <source_iter>  (60) 
3

>  <source_parent_mol>  (60) 
1

>  <source_scenario>  (60) 
1 0 1

>  <source_rank_in_scored_call>  (60) 
0

>  <source_current_task>  (60) 
close_aromatic_ring

>  <scenario>  (60) 
1 0 1

>  <rotatable_bond_torsions>  (60) 
0,1,3,4

>  <reason_to_skip>  (60) 
some_atom_counter_exceeded

$$$$

     RDKit          3D

  7  6  0  0  0  0  0  0  0  0999 V2000
  -27.8640   -7.4760  -31.1990 C   0  0  0  0  0  0  0  0  0  0  0  0
  -27.5380   -6.7190  -32.2850 N   0  0  0  0  0  0  0  0  0  0  0  0
  -27.6840   -8.8650  -31.2620 N   0  0  0  0  0  0  0  0  0  0  0  0
  -27.8024   -5.3830  -31.8813 C   0  0  0  0  0  0  0  0  0  0  0  0
  -28.2367   -4.9275  -30.7486 C   0  0  0  0  0  0  0  0  0  0  0  0
  -28.6734   -5.6694  -29.5069 C   0  0  0  0  0  0  0  0  0  0  0  0
  -29.8637   -5.7077  -29.0906 N   0  0  0  0  0  0  0  0  0  0  0  0
  1  2  2  3
  1  3  1  0
  2  4  1  0
  4  5  2  3
  5  6  1  0
  6  7  1  0
M  END
>  <name>  (61) 
Car Nac Nd0 Car Car Car Nd0

>  <indices>  (61) 
[0, 1, 2]

>  <dummy>  (61) 
2

>  <tasks>  (61) 
probe_placing close_aromatic_ring close_aromatic_ring close_aromatic_ring

>  <current_task>  (61) 
close_aromatic_ring

>  <prot_clashes>  (61) 
1

>  <NBS phar>  (61) 
0.2

>  <NBS_non-phar>  (61) 
0.8784493605295817

>  <NBS>  (61) 
1.0784493605295817

>  <source_stage>  (61) 
scored

>  <source_iter>  (61) 
3

>  <source_parent_mol>  (61) 
1

>  <source_scenario>  (61) 
1 0 1

>  <source_rank_in_scored_call>  (61) 
0

>  <source_current_task>  (61) 
close_aromatic_ring

>  <scenario>  (61) 
1 0 1

>  <rotatable_bond_torsions>  (61) 
0,1,3,4

>  <reason_to_skip>  (61) 
incorrect arom ring closing

$$$$

     RDKit          3D

  7  6  0  0  0  0  0  0  0  0999 V2000
  -27.8640   -7.4760  -31.1990 C   0  0  0  0  0  0  0  0  0  0  0  0
  -27.5380   -6.7190  -32.2850 N   0  0  0  0  0  0  0  0  0  0  0  0
  -27.6840   -8.8650  -31.2620 N   0  0  0  0  0  0  0  0  0  0  0  0
  -27.8024   -5.3830  -31.8813 C   0  0  0  0  0  0  0  0  0  0  0  0
  -28.2367   -4.9275  -30.7486 C   0  0  0  0  0  0  0  0  0  0  0  0
  -28.6734   -5.6694  -29.5069 C   0  0  0  0  0  0  0  0  0  0  0  0
    0.0000    0.0000    0.0000 S   0  0  0  0  0  0  0  0  0  0  0  0
  1  2  2  3
  1  3  1  0
  2  4  1  0
  4  5  2  3
  5  6  1  0
  6  7  1  0
M  END
>  <name>  (62) 
Car Nac Nd0 Car Car Car Sul

>  <indices>  (62) 
[0, 1, 2]

>  <dummy>  (62) 
2

>  <tasks>  (62) 
probe_placing close_aromatic_ring close_aromatic_ring close_aromatic_ring

>  <current_task>  (62) 
close_aromatic_ring

>  <prot_clashes>  (62) 
1

>  <NBS phar>  (62) 
0.2

>  <NBS_non-phar>  (62) 
0.8784493605295817

>  <NBS>  (62) 
1.0784493605295817

>  <source_stage>  (62) 
scored

>  <source_iter>  (62) 
3

>  <source_parent_mol>  (62) 
1

>  <source_scenario>  (62) 
1 0 1

>  <source_rank_in_scored_call>  (62) 
0

>  <source_current_task>  (62) 
close_aromatic_ring

>  <scenario>  (62) 
1 0 1

>  <rotatable_bond_torsions>  (62) 
0,1,3,4

>  <reason_to_skip>  (62) 
some_atom_counter_exceeded

$$$$

     RDKit          3D

  7  6  0  0  0  0  0  0  0  0999 V2000
  -27.8640   -7.4760  -31.1990 C   0  0  0  0  0  0  0  0  0  0  0  0
  -27.5380   -6.7190  -32.2850 N   0  0  0  0  0  0  0  0  0  0  0  0
  -27.6840   -8.8650  -31.2620 N   0  0  0  0  0  0  0  0  0  0  0  0
  -27.8024   -5.3830  -31.8813 C   0  0  0  0  0  0  0  0  0  0  0  0
  -28.2367   -4.9275  -30.7486 C   0  0  0  0  0  0  0  0  0  0  0  0
  -28.6734   -5.6694  -29.5069 C   0  0  0  0  0  0  0  0  0  0  0  0
  -30.1618   -5.8499  -29.5817 N   0  0  0  0  0  0  0  0  0  0  0  0
  1  2  2  3
  1  3  1  0
  2  4  1  0
  4  5  2  3
  5  6  1  0
  6  7  1  0
M  END
>  <name>  (63) 
Car Nac Nd0 Car Car Car Nd0

>  <indices>  (63) 
[0, 1, 2]

>  <dummy>  (63) 
2

>  <tasks>  (63) 
probe_placing close_aromatic_ring close_aromatic_ring close_aromatic_ring

>  <current_task>  (63) 
close_aromatic_ring

>  <prot_clashes>  (63) 
1

>  <NBS phar>  (63) 
0.2

>  <NBS_non-phar>  (63) 
0.8784493605295817

>  <NBS>  (63) 
1.0784493605295817

>  <source_stage>  (63) 
scored

>  <source_iter>  (63) 
3

>  <source_parent_mol>  (63) 
1

>  <source_scenario>  (63) 
1 0 1

>  <source_rank_in_scored_call>  (63) 
0

>  <source_current_task>  (63) 
close_aromatic_ring

>  <scenario>  (63) 
1 0 1

>  <rotatable_bond_torsions>  (63) 
0,1,3,4

>  <reason_to_skip>  (63) 
incorrect arom ring closing

$$$$

     RDKit          3D

  7  6  0  0  0  0  0  0  0  0999 V2000
  -27.8640   -7.4760  -31.1990 C   0  0  0  0  0  0  0  0  0  0  0  0
  -27.5380   -6.7190  -32.2850 N   0  0  0  0  0  0  0  0  0  0  0  0
  -27.6840   -8.8650  -31.2620 N   0  0  0  0  0  0  0  0  0  0  0  0
  -27.8024   -5.3830  -31.8813 C   0  0  0  0  0  0  0  0  0  0  0  0
  -28.2367   -4.9275  -30.7486 C   0  0  0  0  0  0  0  0  0  0  0  0
  -28.6734   -5.6694  -29.5069 C   0  0  0  0  0  0  0  0  0  0  0  0
    0.0000    0.0000    0.0000 O   0  0  0  0  0  0  0  0  0  0  0  0
  1  2  2  3
  1  3  1  0
  2  4  1  0
  4  5  2  3
  5  6  1  0
  6  7  1  0
M  END
>  <name>  (64) 
Car Nac Nd0 Car Car Car O_a

>  <indices>  (64) 
[0, 1, 2]

>  <dummy>  (64) 
2

>  <tasks>  (64) 
probe_placing close_aromatic_ring close_aromatic_ring close_aromatic_ring

>  <current_task>  (64) 
close_aromatic_ring

>  <prot_clashes>  (64) 
1

>  <NBS phar>  (64) 
0.2

>  <NBS_non-phar>  (64) 
0.8784493605295817

>  <NBS>  (64) 
1.0784493605295817

>  <source_stage>  (64) 
scored

>  <source_iter>  (64) 
3

>  <source_parent_mol>  (64) 
1

>  <source_scenario>  (64) 
1 0 1

>  <source_rank_in_scored_call>  (64) 
0

>  <source_current_task>  (64) 
close_aromatic_ring

>  <scenario>  (64) 
1 0 1

>  <rotatable_bond_torsions>  (64) 
0,1,3,4

>  <reason_to_skip>  (64) 
some_atom_counter_exceeded

$$$$

     RDKit          3D

  7  6  0  0  0  0  0  0  0  0999 V2000
  -27.8640   -7.4760  -31.1990 C   0  0  0  0  0  0  0  0  0  0  0  0
  -27.5380   -6.7190  -32.2850 N   0  0  0  0  0  0  0  0  0  0  0  0
  -27.6840   -8.8650  -31.2620 N   0  0  0  0  0  0  0  0  0  0  0  0
  -27.8024   -5.3830  -31.8813 C   0  0  0  0  0  0  0  0  0  0  0  0
  -28.2367   -4.9275  -30.7486 C   0  0  0  0  0  0  0  0  0  0  0  0
  -28.6734   -5.6694  -29.5069 C   0  0  0  0  0  0  0  0  0  0  0  0
    0.0000    0.0000    0.0000 O   0  0  0  0  0  0  0  0  0  0  0  0
  1  2  2  3
  1  3  1  0
  2  4  1  0
  4  5  2  3
  5  6  1  0
  6  7  1  0
M  END
>  <name>  (65) 
Car Nac Nd0 Car Car Car O_a

>  <indices>  (65) 
[0, 1, 2]

>  <dummy>  (65) 
2

>  <tasks>  (65) 
probe_placing close_aromatic_ring close_aromatic_ring close_aromatic_ring

>  <current_task>  (65) 
close_aromatic_ring

>  <prot_clashes>  (65) 
1

>  <NBS phar>  (65) 
0.2

>  <NBS_non-phar>  (65) 
0.8784493605295817

>  <NBS>  (65) 
1.0784493605295817

>  <source_stage>  (65) 
scored

>  <source_iter>  (65) 
3

>  <source_parent_mol>  (65) 
1

>  <source_scenario>  (65) 
1 0 1

>  <source_rank_in_scored_call>  (65) 
0

>  <source_current_task>  (65) 
close_aromatic_ring

>  <scenario>  (65) 
1 0 1

>  <rotatable_bond_torsions>  (65) 
0,1,3,4

>  <reason_to_skip>  (65) 
some_atom_counter_exceeded

$$$$

     RDKit          3D

  7  6  0  0  0  0  0  0  0  0999 V2000
  -27.8640   -7.4760  -31.1990 C   0  0  0  0  0  0  0  0  0  0  0  0
  -27.5380   -6.7190  -32.2850 N   0  0  0  0  0  0  0  0  0  0  0  0
  -27.6840   -8.8650  -31.2620 N   0  0  0  0  0  0  0  0  0  0  0  0
  -27.8024   -5.3830  -31.8813 C   0  0  0  0  0  0  0  0  0  0  0  0
  -28.2367   -4.9275  -30.7486 C   0  0  0  0  0  0  0  0  0  0  0  0
  -28.6734   -5.6694  -29.5069 C   0  0  0  0  0  0  0  0  0  0  0  0
  -28.6218   -7.0281  -29.5311 N   0  0  0  0  0  0  0  0  0  0  0  0
  1  2  2  3
  1  3  1  0
  2  4  1  0
  4  5  2  3
  5  6  1  0
  6  7  1  0
M  END
>  <name>  (66) 
Car Nac Nd0 Car Car Car Nd0

>  <indices>  (66) 
[0, 1, 2]

>  <dummy>  (66) 
2

>  <tasks>  (66) 
probe_placing close_aromatic_ring close_aromatic_ring close_aromatic_ring

>  <current_task>  (66) 
close_aromatic_ring

>  <prot_clashes>  (66) 
1

>  <NBS phar>  (66) 
0.2

>  <NBS_non-phar>  (66) 
0.8784493605295817

>  <NBS>  (66) 
1.0784493605295817

>  <source_stage>  (66) 
scored

>  <source_iter>  (66) 
3

>  <source_parent_mol>  (66) 
1

>  <source_scenario>  (66) 
1 0 1

>  <source_rank_in_scored_call>  (66) 
0

>  <source_current_task>  (66) 
close_aromatic_ring

>  <scenario>  (66) 
1 0 1

>  <rotatable_bond_torsions>  (66) 
0,1,3,4

>  <reason_to_skip>  (66) 
intramol clashes

$$$$

     RDKit          3D

  7  7  0  0  0  0  0  0  0  0999 V2000
  -27.9485   -7.5633  -31.0543 C   0  0  0  0  0  0  0  0  0  0  0  0
  -27.6283   -6.6803  -32.0423 N   0  0  0  0  0  0  0  0  0  0  0  0
  -27.6840   -8.8650  -31.2620 N   0  0  0  0  0  0  0  0  0  0  0  0
  -27.7822   -5.3427  -31.8911 C   0  0  0  0  0  0  0  0  0  0  0  0
  -28.2793   -4.8425  -30.7010 C   0  0  0  0  0  0  0  0  0  0  0  0
  -28.6066   -5.7315  -29.6935 C   0  0  0  0  0  0  0  0  0  0  0  0
  -28.4304   -7.0458  -29.9066 N   0  0  0  0  0  0  0  0  0  0  0  0
  1  2  2  0
  1  3  1  0
  2  4  1  0
  4  5  2  0
  5  6  1  0
  6  7  2  0
  1  7  1  0
M  END
>  <name>  (67) 
Car Nac Nd0 Car Car Car Nac

>  <indices>  (67) 
[0, 1, 2]

>  <dummy>  (67) 
2

>  <tasks>  (67) 
probe_placing close_aromatic_ring close_aromatic_ring close_aromatic_ring

>  <current_task>  (67) 
no_task

>  <prot_clashes>  (67) 
1

>  <NBS phar>  (67) 
0.2

>  <NBS_non-phar>  (67) 
0.8784493605295817

>  <NBS>  (67) 
1.0784493605295817

>  <source_stage>  (67) 
scored

>  <source_iter>  (67) 
3

>  <source_parent_mol>  (67) 
1

>  <source_scenario>  (67) 
1 0 1

>  <source_rank_in_scored_call>  (67) 
0

>  <source_current_task>  (67) 
close_aromatic_ring

>  <scenario>  (67) 
1 0 1

>  <rotatable_bond_torsions>  (67) 
0,1,3,4

>  <reason_to_skip>  (67) 
subgraph mismatch

$$$$

     RDKit          3D

  7  7  0  0  0  0  0  0  0  0999 V2000
  -27.9220   -7.5573  -31.1362 C   0  0  0  0  0  0  0  0  0  0  0  0
  -27.6083   -6.7260  -32.0860 N   0  0  0  0  0  0  0  0  0  0  0  0
  -27.6840   -8.8650  -31.2620 N   0  0  0  0  0  0  0  0  0  0  0  0
  -27.7850   -5.3284  -31.8798 C   0  0  0  0  0  0  0  0  0  0  0  0
  -28.2608   -4.8634  -30.7432 C   0  0  0  0  0  0  0  0  0  0  0  0
  -28.6561   -5.6917  -29.5849 C   0  0  0  0  0  0  0  0  0  0  0  0
  -28.4354   -7.0790  -29.9059 N   0  0  0  0  0  0  0  0  0  0  0  0
  1  2  2  0
  1  3  1  0
  2  4  1  0
  4  5  2  0
  5  6  1  0
  6  7  1  0
  1  7  1  0
M  END
>  <name>  (68) 
Car Nac Nd0 Car Car Car Nac

>  <indices>  (68) 
[0, 1, 2]

>  <dummy>  (68) 
2

>  <tasks>  (68) 
probe_placing close_aromatic_ring close_aromatic_ring close_aromatic_ring

>  <current_task>  (68) 
fix_Car

>  <prot_clashes>  (68) 
1

>  <NBS phar>  (68) 
0.2

>  <NBS_non-phar>  (68) 
0.8784493605295817

>  <NBS>  (68) 
1.0784493605295817

>  <source_stage>  (68) 
scored

>  <source_iter>  (68) 
3

>  <source_parent_mol>  (68) 
1

>  <source_scenario>  (68) 
1 0 1

>  <source_rank_in_scored_call>  (68) 
0

>  <source_current_task>  (68) 
close_aromatic_ring

>  <scenario>  (68) 
1 0 1

>  <rotatable_bond_torsions>  (68) 
0,1,3,4

>  <reason_to_skip>  (68) 
subgraph mismatch

$$$$

     RDKit          3D

  7  6  0  0  0  0  0  0  0  0999 V2000
  -27.8640   -7.4760  -31.1990 C   0  0  0  0  0  0  0  0  0  0  0  0
  -27.5380   -6.7190  -32.2850 N   0  0  0  0  0  0  0  0  0  0  0  0
  -27.6840   -8.8650  -31.2620 N   0  0  0  0  0  0  0  0  0  0  0  0
  -27.8024   -5.3830  -31.8813 C   0  0  0  0  0  0  0  0  0  0  0  0
  -28.2367   -4.9275  -30.7486 C   0  0  0  0  0  0  0  0  0  0  0  0
  -28.6734   -5.6694  -29.5069 C   0  0  0  0  0  0  0  0  0  0  0  0
  -28.6559   -7.0373  -29.3582 N   0  0  0  0  0  0  0  0  0  0  0  0
  1  2  2  3
  1  3  1  0
  2  4  1  0
  4  5  2  3
  5  6  1  0
  6  7  1  0
M  END
>  <name>  (69) 
Car Nac Nd0 Car Car Car Nd0

>  <indices>  (69) 
[0, 1, 2]

>  <dummy>  (69) 
2

>  <tasks>  (69) 
probe_placing close_aromatic_ring close_aromatic_ring close_aromatic_ring

>  <current_task>  (69) 
close_aromatic_ring

>  <prot_clashes>  (69) 
1

>  <NBS phar>  (69) 
0.2

>  <NBS_non-phar>  (69) 
0.8784493605295817

>  <NBS>  (69) 
1.0784493605295817

>  <source_stage>  (69) 
scored

>  <source_iter>  (69) 
3

>  <source_parent_mol>  (69) 
1

>  <source_scenario>  (69) 
1 0 1

>  <source_rank_in_scored_call>  (69) 
0

>  <source_current_task>  (69) 
close_aromatic_ring

>  <scenario>  (69) 
1 0 1

>  <rotatable_bond_torsions>  (69) 
0,1,3,4

>  <reason_to_skip>  (69) 
subgraph mismatch

$$$$

     RDKit          3D

  7  7  0  0  0  0  0  0  0  0999 V2000
  -27.9305   -7.5410  -31.1187 C   0  0  0  0  0  0  0  0  0  0  0  0
  -27.6094   -6.7364  -32.0816 N   0  0  0  0  0  0  0  0  0  0  0  0
  -27.6840   -8.8650  -31.2620 N   0  0  0  0  0  0  0  0  0  0  0  0
  -27.7867   -5.3417  -31.8719 C   0  0  0  0  0  0  0  0  0  0  0  0
  -28.2625   -4.8421  -30.7416 C   0  0  0  0  0  0  0  0  0  0  0  0
  -28.6581   -5.6809  -29.5820 C   0  0  0  0  0  0  0  0  0  0  0  0
  -28.4444   -7.0788  -29.8843 N   0  0  0  0  0  0  0  0  0  0  0  0
  1  2  2  0
  1  3  1  0
  2  4  1  0
  4  5  2  0
  5  6  1  0
  6  7  1  0
  1  7  1  0
M  END
>  <name>  (70) 
Car Nac Nd0 Car Car Car Nd0

>  <indices>  (70) 
[0, 1, 2]

>  <dummy>  (70) 
2

>  <tasks>  (70) 
probe_placing close_aromatic_ring close_aromatic_ring close_aromatic_ring

>  <current_task>  (70) 
fix_Car

>  <prot_clashes>  (70) 
1

>  <NBS phar>  (70) 
0.2

>  <NBS_non-phar>  (70) 
0.8784493605295817

>  <NBS>  (70) 
1.0784493605295817

>  <source_stage>  (70) 
scored

>  <source_iter>  (70) 
3

>  <source_parent_mol>  (70) 
1

>  <source_scenario>  (70) 
1 0 1

>  <source_rank_in_scored_call>  (70) 
0

>  <source_current_task>  (70) 
close_aromatic_ring

>  <scenario>  (70) 
1 0 1

>  <rotatable_bond_torsions>  (70) 
0,1,3,4

>  <reason_to_skip>  (70) 
subgraph mismatch

$$$$

     RDKit          3D

  7  6  0  0  0  0  0  0  0  0999 V2000
  -27.8640   -7.4760  -31.1990 C   0  0  0  0  0  0  0  0  0  0  0  0
  -27.5380   -6.7190  -32.2850 N   0  0  0  0  0  0  0  0  0  0  0  0
  -27.6840   -8.8650  -31.2620 N   0  0  0  0  0  0  0  0  0  0  0  0
  -27.8024   -5.3830  -31.8813 C   0  0  0  0  0  0  0  0  0  0  0  0
  -28.2367   -4.9275  -30.7486 C   0  0  0  0  0  0  0  0  0  0  0  0
  -28.6734   -5.6694  -29.5069 C   0  0  0  0  0  0  0  0  0  0  0  0
  -28.7564   -7.0513  -29.3380 N   0  0  0  0  0  0  0  0  0  0  0  0
  1  2  2  3
  1  3  1  0
  2  4  1  0
  4  5  2  3
  5  6  1  0
  6  7  1  0
M  END
>  <name>  (71) 
Car Nac Nd0 Car Car Car Nac

>  <indices>  (71) 
[0, 1, 2]

>  <dummy>  (71) 
2

>  <tasks>  (71) 
probe_placing close_aromatic_ring close_aromatic_ring close_aromatic_ring

>  <current_task>  (71) 
close_aromatic_ring

>  <prot_clashes>  (71) 
1

>  <NBS phar>  (71) 
0.2

>  <NBS_non-phar>  (71) 
0.8784493605295817

>  <NBS>  (71) 
1.0784493605295817

>  <source_stage>  (71) 
scored

>  <source_iter>  (71) 
3

>  <source_parent_mol>  (71) 
1

>  <source_scenario>  (71) 
1 0 1

>  <source_rank_in_scored_call>  (71) 
0

>  <source_current_task>  (71) 
close_aromatic_ring

>  <scenario>  (71) 
1 0 1

>  <rotatable_bond_torsions>  (71) 
0,1,3,4

>  <reason_to_skip>  (71) 
subgraph mismatch

$$$$

     RDKit          3D

  8  8  0  0  0  0  0  0  0  0999 V2000
  -27.9544   -7.5786  -31.0885 C   0  0  0  0  0  0  0  0  0  0  0  0
  -27.6252   -6.6792  -32.0546 N   0  0  0  0  0  0  0  0  0  0  0  0
  -27.6840   -8.8650  -31.2620 N   0  0  0  0  0  0  0  0  0  0  0  0
  -27.7723   -5.3521  -31.8910 C   0  0  0  0  0  0  0  0  0  0  0  0
  -28.2774   -4.8775  -30.6967 C   0  0  0  0  0  0  0  0  0  0  0  0
  -28.6304   -5.7525  -29.6749 C   0  0  0  0  0  0  0  0  0  0  0  0
  -28.4669   -7.1072  -29.8753 C   0  0  0  0  0  0  0  0  0  0  0  0
    0.0000    0.0000    0.0000 C   0  0  0  0  0  0  0  0  0  0  0  0
  1  2  2  0
  1  3  1  0
  2  4  1  0
  4  5  2  0
  5  6  1  0
  6  7  2  0
  1  7  1  0
  3  8  1  0
M  END
>  <name>  (1) 
Car Nac Nd0 Car Car Car Car C3r

>  <indices>  (1) 
[0, 1, 2]

>  <tasks>  (1) 
probe_placing close_aromatic_ring close_aromatic_ring close_aromatic_ring close_aromatic_ring ring_built

>  <prot_clashes>  (1) 
0

>  <NBS phar>  (1) 
0.2

>  <NBS_non-phar>  (1) 
0.781130313873291

>  <NBS>  (1) 
0.981130313873291

>  <source_stage>  (1) 
scored

>  <source_iter>  (1) 
4

>  <source_parent_mol>  (1) 
0

>  <source_scenario>  (1) 
1 0 1 0

>  <source_rank_in_scored_call>  (1) 
0

>  <source_current_task>  (1) 
close_aromatic_ring

>  <scenario>  (1) 
1 0 1 0

>  <reason_to_skip>  (1) 
some_atom_counter_exceeded

$$$$

     RDKit          3D

  8  8  0  0  0  0  0  0  0  0999 V2000
  -27.9544   -7.5786  -31.0885 C   0  0  0  0  0  0  0  0  0  0  0  0
  -27.6252   -6.6792  -32.0546 N   0  0  0  0  0  0  0  0  0  0  0  0
  -27.6840   -8.8650  -31.2620 N   0  0  0  0  0  0  0  0  0  0  0  0
  -27.7723   -5.3521  -31.8910 C   0  0  0  0  0  0  0  0  0  0  0  0
  -28.2774   -4.8775  -30.6967 C   0  0  0  0  0  0  0  0  0  0  0  0
  -28.6304   -5.7525  -29.6749 C   0  0  0  0  0  0  0  0  0  0  0  0
  -28.4669   -7.1072  -29.8753 C   0  0  0  0  0  0  0  0  0  0  0  0
    0.0000    0.0000    0.0000 C   0  0  0  0  0  0  0  0  0  0  0  0
  1  2  2  0
  1  3  1  0
  2  4  1  0
  4  5  2  0
  5  6  1  0
  6  7  2  0
  1  7  1  0
  3  8  1  0
M  END
>  <name>  (2) 
Car Nac Nd0 Car Car Car Car C3r

>  <indices>  (2) 
[0, 1, 2]

>  <tasks>  (2) 
probe_placing close_aromatic_ring close_aromatic_ring close_aromatic_ring close_aromatic_ring ring_built

>  <prot_clashes>  (2) 
0

>  <NBS phar>  (2) 
0.2

>  <NBS_non-phar>  (2) 
0.781130313873291

>  <NBS>  (2) 
0.981130313873291

>  <source_stage>  (2) 
scored

>  <source_iter>  (2) 
4

>  <source_parent_mol>  (2) 
0

>  <source_scenario>  (2) 
1 0 1 0

>  <source_rank_in_scored_call>  (2) 
0

>  <source_current_task>  (2) 
close_aromatic_ring

>  <scenario>  (2) 
1 0 1 0

>  <reason_to_skip>  (2) 
some_atom_counter_exceeded

$$$$

     RDKit          3D

  8  8  0  0  0  0  0  0  0  0999 V2000
  -27.9544   -7.5786  -31.0885 C   0  0  0  0  0  0  0  0  0  0  0  0
  -27.6252   -6.6792  -32.0546 N   0  0  0  0  0  0  0  0  0  0  0  0
  -27.6840   -8.8650  -31.2620 N   0  0  0  0  0  0  0  0  0  0  0  0
  -27.7723   -5.3521  -31.8910 C   0  0  0  0  0  0  0  0  0  0  0  0
  -28.2774   -4.8775  -30.6967 C   0  0  0  0  0  0  0  0  0  0  0  0
  -28.6304   -5.7525  -29.6749 C   0  0  0  0  0  0  0  0  0  0  0  0
  -28.4669   -7.1072  -29.8753 C   0  0  0  0  0  0  0  0  0  0  0  0
    0.0000    0.0000    0.0000 C   0  0  0  0  0  0  0  0  0  0  0  0
  1  2  2  0
  1  3  1  0
  2  4  1  0
  4  5  2  0
  5  6  1  0
  6  7  2  0
  1  7  1  0
  3  8  1  0
M  END
>  <name>  (3) 
Car Nac Nd0 Car Car Car Car C3r

>  <indices>  (3) 
[0, 1, 2]

>  <tasks>  (3) 
probe_placing close_aromatic_ring close_aromatic_ring close_aromatic_ring close_aromatic_ring ring_built

>  <prot_clashes>  (3) 
0

>  <NBS phar>  (3) 
0.2

>  <NBS_non-phar>  (3) 
0.781130313873291

>  <NBS>  (3) 
0.981130313873291

>  <source_stage>  (3) 
scored

>  <source_iter>  (3) 
4

>  <source_parent_mol>  (3) 
0

>  <source_scenario>  (3) 
1 0 1 0

>  <source_rank_in_scored_call>  (3) 
0

>  <source_current_task>  (3) 
close_aromatic_ring

>  <scenario>  (3) 
1 0 1 0

>  <reason_to_skip>  (3) 
some_atom_counter_exceeded

$$$$

     RDKit          3D

  8  8  0  0  0  0  0  0  0  0999 V2000
  -27.9544   -7.5786  -31.0885 C   0  0  0  0  0  0  0  0  0  0  0  0
  -27.6252   -6.6792  -32.0546 N   0  0  0  0  0  0  0  0  0  0  0  0
  -27.6840   -8.8650  -31.2620 N   0  0  0  0  0  0  0  0  0  0  0  0
  -27.7723   -5.3521  -31.8910 C   0  0  0  0  0  0  0  0  0  0  0  0
  -28.2774   -4.8775  -30.6967 C   0  0  0  0  0  0  0  0  0  0  0  0
  -28.6304   -5.7525  -29.6749 C   0  0  0  0  0  0  0  0  0  0  0  0
  -28.4669   -7.1072  -29.8753 C   0  0  0  0  0  0  0  0  0  0  0  0
    0.0000    0.0000    0.0000 C   0  0  0  0  0  0  0  0  0  0  0  0
  1  2  2  0
  1  3  1  0
  2  4  1  0
  4  5  2  0
  5  6  1  0
  6  7  2  0
  1  7  1  0
  3  8  1  0
M  END
>  <name>  (4) 
Car Nac Nd0 Car Car Car Car C3r

>  <indices>  (4) 
[0, 1, 2]

>  <tasks>  (4) 
probe_placing close_aromatic_ring close_aromatic_ring close_aromatic_ring close_aromatic_ring ring_built

>  <prot_clashes>  (4) 
0

>  <NBS phar>  (4) 
0.2

>  <NBS_non-phar>  (4) 
0.781130313873291

>  <NBS>  (4) 
0.981130313873291

>  <source_stage>  (4) 
scored

>  <source_iter>  (4) 
4

>  <source_parent_mol>  (4) 
0

>  <source_scenario>  (4) 
1 0 1 0

>  <source_rank_in_scored_call>  (4) 
0

>  <source_current_task>  (4) 
close_aromatic_ring

>  <scenario>  (4) 
1 0 1 0

>  <reason_to_skip>  (4) 
some_atom_counter_exceeded

$$$$

     RDKit          3D

  8  8  0  0  0  0  0  0  0  0999 V2000
  -27.9544   -7.5786  -31.0885 C   0  0  0  0  0  0  0  0  0  0  0  0
  -27.6252   -6.6792  -32.0546 N   0  0  0  0  0  0  0  0  0  0  0  0
  -27.6840   -8.8650  -31.2620 N   0  0  0  0  0  0  0  0  0  0  0  0
  -27.7723   -5.3521  -31.8910 C   0  0  0  0  0  0  0  0  0  0  0  0
  -28.2774   -4.8775  -30.6967 C   0  0  0  0  0  0  0  0  0  0  0  0
  -28.6304   -5.7525  -29.6749 C   0  0  0  0  0  0  0  0  0  0  0  0
  -28.4669   -7.1072  -29.8753 C   0  0  0  0  0  0  0  0  0  0  0  0
    0.0000    0.0000    0.0000 C   0  0  0  0  0  0  0  0  0  0  0  0
  1  2  2  0
  1  3  1  0
  2  4  1  0
  4  5  2  0
  5  6  1  0
  6  7  2  0
  1  7  1  0
  3  8  1  0
M  END
>  <name>  (5) 
Car Nac Nd0 Car Car Car Car C3r

>  <indices>  (5) 
[0, 1, 2]

>  <tasks>  (5) 
probe_placing close_aromatic_ring close_aromatic_ring close_aromatic_ring close_aromatic_ring ring_built

>  <prot_clashes>  (5) 
0

>  <NBS phar>  (5) 
0.2

>  <NBS_non-phar>  (5) 
0.781130313873291

>  <NBS>  (5) 
0.981130313873291

>  <source_stage>  (5) 
scored

>  <source_iter>  (5) 
4

>  <source_parent_mol>  (5) 
0

>  <source_scenario>  (5) 
1 0 1 0

>  <source_rank_in_scored_call>  (5) 
0

>  <source_current_task>  (5) 
close_aromatic_ring

>  <scenario>  (5) 
1 0 1 0

>  <reason_to_skip>  (5) 
some_atom_counter_exceeded

$$$$

     RDKit          3D

  8  8  0  0  0  0  0  0  0  0999 V2000
  -27.9544   -7.5786  -31.0885 C   0  0  0  0  0  0  0  0  0  0  0  0
  -27.6252   -6.6792  -32.0546 N   0  0  0  0  0  0  0  0  0  0  0  0
  -27.6840   -8.8650  -31.2620 N   0  0  0  0  0  0  0  0  0  0  0  0
  -27.7723   -5.3521  -31.8910 C   0  0  0  0  0  0  0  0  0  0  0  0
  -28.2774   -4.8775  -30.6967 C   0  0  0  0  0  0  0  0  0  0  0  0
  -28.6304   -5.7525  -29.6749 C   0  0  0  0  0  0  0  0  0  0  0  0
  -28.4669   -7.1072  -29.8753 C   0  0  0  0  0  0  0  0  0  0  0  0
    0.0000    0.0000    0.0000 C   0  0  0  0  0  0  0  0  0  0  0  0
  1  2  2  0
  1  3  1  0
  2  4  1  0
  4  5  2  0
  5  6  1  0
  6  7  2  0
  1  7  1  0
  3  8  1  0
M  END
>  <name>  (6) 
Car Nac Nd0 Car Car Car Car C3r

>  <indices>  (6) 
[0, 1, 2]

>  <tasks>  (6) 
probe_placing close_aromatic_ring close_aromatic_ring close_aromatic_ring close_aromatic_ring ring_built

>  <prot_clashes>  (6) 
0

>  <NBS phar>  (6) 
0.2

>  <NBS_non-phar>  (6) 
0.781130313873291

>  <NBS>  (6) 
0.981130313873291

>  <source_stage>  (6) 
scored

>  <source_iter>  (6) 
4

>  <source_parent_mol>  (6) 
0

>  <source_scenario>  (6) 
1 0 1 0

>  <source_rank_in_scored_call>  (6) 
0

>  <source_current_task>  (6) 
close_aromatic_ring

>  <scenario>  (6) 
1 0 1 0

>  <reason_to_skip>  (6) 
some_atom_counter_exceeded

$$$$

     RDKit          3D

  8  8  0  0  0  0  0  0  0  0999 V2000
  -27.9544   -7.5786  -31.0885 C   0  0  0  0  0  0  0  0  0  0  0  0
  -27.6252   -6.6792  -32.0546 N   0  0  0  0  0  0  0  0  0  0  0  0
  -27.6840   -8.8650  -31.2620 N   0  0  0  0  0  0  0  0  0  0  0  0
  -27.7723   -5.3521  -31.8910 C   0  0  0  0  0  0  0  0  0  0  0  0
  -28.2774   -4.8775  -30.6967 C   0  0  0  0  0  0  0  0  0  0  0  0
  -28.6304   -5.7525  -29.6749 C   0  0  0  0  0  0  0  0  0  0  0  0
  -28.4669   -7.1072  -29.8753 C   0  0  0  0  0  0  0  0  0  0  0  0
    0.0000    0.0000    0.0000 C   0  0  0  0  0  0  0  0  0  0  0  0
  1  2  2  0
  1  3  1  0
  2  4  1  0
  4  5  2  0
  5  6  1  0
  6  7  2  0
  1  7  1  0
  3  8  1  0
M  END
>  <name>  (7) 
Car Nac Nd0 Car Car Car Car C3r

>  <indices>  (7) 
[0, 1, 2]

>  <tasks>  (7) 
probe_placing close_aromatic_ring close_aromatic_ring close_aromatic_ring close_aromatic_ring ring_built

>  <prot_clashes>  (7) 
0

>  <NBS phar>  (7) 
0.2

>  <NBS_non-phar>  (7) 
0.781130313873291

>  <NBS>  (7) 
0.981130313873291

>  <source_stage>  (7) 
scored

>  <source_iter>  (7) 
4

>  <source_parent_mol>  (7) 
0

>  <source_scenario>  (7) 
1 0 1 0

>  <source_rank_in_scored_call>  (7) 
0

>  <source_current_task>  (7) 
close_aromatic_ring

>  <scenario>  (7) 
1 0 1 0

>  <reason_to_skip>  (7) 
some_atom_counter_exceeded

$$$$

     RDKit          3D

  8  8  0  0  0  0  0  0  0  0999 V2000
  -27.9544   -7.5786  -31.0885 C   0  0  0  0  0  0  0  0  0  0  0  0
  -27.6252   -6.6792  -32.0546 N   0  0  0  0  0  0  0  0  0  0  0  0
  -27.6840   -8.8650  -31.2620 N   0  0  0  0  0  0  0  0  0  0  0  0
  -27.7723   -5.3521  -31.8910 C   0  0  0  0  0  0  0  0  0  0  0  0
  -28.2774   -4.8775  -30.6967 C   0  0  0  0  0  0  0  0  0  0  0  0
  -28.6304   -5.7525  -29.6749 C   0  0  0  0  0  0  0  0  0  0  0  0
  -28.4669   -7.1072  -29.8753 C   0  0  0  0  0  0  0  0  0  0  0  0
    0.0000    0.0000    0.0000 C   0  0  0  0  0  0  0  0  0  0  0  0
  1  2  2  0
  1  3  1  0
  2  4  1  0
  4  5  2  0
  5  6  1  0
  6  7  2  0
  1  7  1  0
  3  8  1  0
M  END
>  <name>  (8) 
Car Nac Nd0 Car Car Car Car C3r

>  <indices>  (8) 
[0, 1, 2]

>  <tasks>  (8) 
probe_placing close_aromatic_ring close_aromatic_ring close_aromatic_ring close_aromatic_ring ring_built

>  <prot_clashes>  (8) 
0

>  <NBS phar>  (8) 
0.2

>  <NBS_non-phar>  (8) 
0.781130313873291

>  <NBS>  (8) 
0.981130313873291

>  <source_stage>  (8) 
scored

>  <source_iter>  (8) 
4

>  <source_parent_mol>  (8) 
0

>  <source_scenario>  (8) 
1 0 1 0

>  <source_rank_in_scored_call>  (8) 
0

>  <source_current_task>  (8) 
close_aromatic_ring

>  <scenario>  (8) 
1 0 1 0

>  <reason_to_skip>  (8) 
some_atom_counter_exceeded

$$$$

     RDKit          3D

  8  8  0  0  0  0  0  0  0  0999 V2000
  -27.9544   -7.5786  -31.0885 C   0  0  0  0  0  0  0  0  0  0  0  0
  -27.6252   -6.6792  -32.0546 N   0  0  0  0  0  0  0  0  0  0  0  0
  -27.6840   -8.8650  -31.2620 N   0  0  0  0  0  0  0  0  0  0  0  0
  -27.7723   -5.3521  -31.8910 C   0  0  0  0  0  0  0  0  0  0  0  0
  -28.2774   -4.8775  -30.6967 C   0  0  0  0  0  0  0  0  0  0  0  0
  -28.6304   -5.7525  -29.6749 C   0  0  0  0  0  0  0  0  0  0  0  0
  -28.4669   -7.1072  -29.8753 C   0  0  0  0  0  0  0  0  0  0  0  0
  -27.1712   -9.8744  -30.4797 C   0  0  0  0  0  0  0  0  0  0  0  0
  1  2  2  0
  1  3  1  0
  2  4  1  0
  4  5  2  0
  5  6  1  0
  6  7  2  0
  1  7  1  0
  3  8  1  0
M  END
>  <name>  (9) 
Car Nac Nd0 Car Car Car Car C2r

>  <indices>  (9) 
[0, 1, 2]

>  <tasks>  (9) 
probe_placing close_aromatic_ring close_aromatic_ring close_aromatic_ring close_aromatic_ring ring_built

>  <prot_clashes>  (9) 
0

>  <NBS phar>  (9) 
0.2

>  <NBS_non-phar>  (9) 
0.781130313873291

>  <NBS>  (9) 
0.981130313873291

>  <source_stage>  (9) 
scored

>  <source_iter>  (9) 
4

>  <source_parent_mol>  (9) 
0

>  <source_scenario>  (9) 
1 0 1 0

>  <source_rank_in_scored_call>  (9) 
0

>  <source_current_task>  (9) 
close_aromatic_ring

>  <scenario>  (9) 
1 0 1 0

>  <reason_to_skip>  (9) 
bad angles

$$$$

     RDKit          3D

  8  8  0  0  0  0  0  0  0  0999 V2000
  -27.9544   -7.5786  -31.0885 C   0  0  0  0  0  0  0  0  0  0  0  0
  -27.6252   -6.6792  -32.0546 N   0  0  0  0  0  0  0  0  0  0  0  0
  -27.6840   -8.8650  -31.2620 N   0  0  0  0  0  0  0  0  0  0  0  0
  -27.7723   -5.3521  -31.8910 C   0  0  0  0  0  0  0  0  0  0  0  0
  -28.2774   -4.8775  -30.6967 C   0  0  0  0  0  0  0  0  0  0  0  0
  -28.6304   -5.7525  -29.6749 C   0  0  0  0  0  0  0  0  0  0  0  0
  -28.4669   -7.1072  -29.8753 C   0  0  0  0  0  0  0  0  0  0  0  0
  -27.7835   -9.7237  -32.3394 C   0  0  0  0  0  0  0  0  0  0  0  0
  1  2  2  0
  1  3  1  0
  2  4  1  0
  4  5  2  0
  5  6  1  0
  6  7  2  0
  1  7  1  0
  3  8  1  0
M  END
>  <name>  (10) 
Car Nac Nd0 Car Car Car Car C2r

>  <indices>  (10) 
[0, 1, 2]

>  <tasks>  (10) 
probe_placing close_aromatic_ring close_aromatic_ring close_aromatic_ring close_aromatic_ring ring_built

>  <prot_clashes>  (10) 
0

>  <NBS phar>  (10) 
0.2

>  <NBS_non-phar>  (10) 
0.781130313873291

>  <NBS>  (10) 
0.981130313873291

>  <source_stage>  (10) 
scored

>  <source_iter>  (10) 
4

>  <source_parent_mol>  (10) 
0

>  <source_scenario>  (10) 
1 0 1 0

>  <source_rank_in_scored_call>  (10) 
0

>  <source_current_task>  (10) 
close_aromatic_ring

>  <scenario>  (10) 
1 0 1 0

>  <reason_to_skip>  (10) 
bad dihedral

$$$$

     RDKit          3D

  8  8  0  0  0  0  0  0  0  0999 V2000
  -27.9544   -7.5786  -31.0885 C   0  0  0  0  0  0  0  0  0  0  0  0
  -27.6252   -6.6792  -32.0546 N   0  0  0  0  0  0  0  0  0  0  0  0
  -27.6840   -8.8650  -31.2620 N   0  0  0  0  0  0  0  0  0  0  0  0
  -27.7723   -5.3521  -31.8910 C   0  0  0  0  0  0  0  0  0  0  0  0
  -28.2774   -4.8775  -30.6967 C   0  0  0  0  0  0  0  0  0  0  0  0
  -28.6304   -5.7525  -29.6749 C   0  0  0  0  0  0  0  0  0  0  0  0
  -28.4669   -7.1072  -29.8753 C   0  0  0  0  0  0  0  0  0  0  0  0
    0.0000    0.0000    0.0000 C   0  0  0  0  0  0  0  0  0  0  0  0
  1  2  2  0
  1  3  1  0
  2  4  1  0
  4  5  2  0
  5  6  1  0
  6  7  2  0
  1  7  1  0
  3  8  1  0
M  END
>  <name>  (11) 
Car Nac Nd0 Car Car Car Car C3r

>  <indices>  (11) 
[0, 1, 2]

>  <tasks>  (11) 
probe_placing close_aromatic_ring close_aromatic_ring close_aromatic_ring close_aromatic_ring ring_built

>  <prot_clashes>  (11) 
0

>  <NBS phar>  (11) 
0.2

>  <NBS_non-phar>  (11) 
0.781130313873291

>  <NBS>  (11) 
0.981130313873291

>  <source_stage>  (11) 
scored

>  <source_iter>  (11) 
4

>  <source_parent_mol>  (11) 
0

>  <source_scenario>  (11) 
1 0 1 0

>  <source_rank_in_scored_call>  (11) 
0

>  <source_current_task>  (11) 
close_aromatic_ring

>  <scenario>  (11) 
1 0 1 0

>  <reason_to_skip>  (11) 
some_atom_counter_exceeded

$$$$

     RDKit          3D

  8  8  0  0  0  0  0  0  0  0999 V2000
  -27.9544   -7.5786  -31.0885 C   0  0  0  0  0  0  0  0  0  0  0  0
  -27.6252   -6.6792  -32.0546 N   0  0  0  0  0  0  0  0  0  0  0  0
  -27.6840   -8.8650  -31.2620 N   0  0  0  0  0  0  0  0  0  0  0  0
  -27.7723   -5.3521  -31.8910 C   0  0  0  0  0  0  0  0  0  0  0  0
  -28.2774   -4.8775  -30.6967 C   0  0  0  0  0  0  0  0  0  0  0  0
  -28.6304   -5.7525  -29.6749 C   0  0  0  0  0  0  0  0  0  0  0  0
  -28.4669   -7.1072  -29.8753 C   0  0  0  0  0  0  0  0  0  0  0  0
    0.0000    0.0000    0.0000 C   0  0  0  0  0  0  0  0  0  0  0  0
  1  2  2  0
  1  3  1  0
  2  4  1  0
  4  5  2  0
  5  6  1  0
  6  7  2  0
  1  7  1  0
  3  8  1  0
M  END
>  <name>  (12) 
Car Nac Nd0 Car Car Car Car C3r

>  <indices>  (12) 
[0, 1, 2]

>  <tasks>  (12) 
probe_placing close_aromatic_ring close_aromatic_ring close_aromatic_ring close_aromatic_ring ring_built

>  <prot_clashes>  (12) 
0

>  <NBS phar>  (12) 
0.2

>  <NBS_non-phar>  (12) 
0.781130313873291

>  <NBS>  (12) 
0.981130313873291

>  <source_stage>  (12) 
scored

>  <source_iter>  (12) 
4

>  <source_parent_mol>  (12) 
0

>  <source_scenario>  (12) 
1 0 1 0

>  <source_rank_in_scored_call>  (12) 
0

>  <source_current_task>  (12) 
close_aromatic_ring

>  <scenario>  (12) 
1 0 1 0

>  <reason_to_skip>  (12) 
some_atom_counter_exceeded

$$$$

     RDKit          3D

  8  8  0  0  0  0  0  0  0  0999 V2000
  -27.9544   -7.5786  -31.0885 C   0  0  0  0  0  0  0  0  0  0  0  0
  -27.6252   -6.6792  -32.0546 N   0  0  0  0  0  0  0  0  0  0  0  0
  -27.6840   -8.8650  -31.2620 N   0  0  0  0  0  0  0  0  0  0  0  0
  -27.7723   -5.3521  -31.8910 C   0  0  0  0  0  0  0  0  0  0  0  0
  -28.2774   -4.8775  -30.6967 C   0  0  0  0  0  0  0  0  0  0  0  0
  -28.6304   -5.7525  -29.6749 C   0  0  0  0  0  0  0  0  0  0  0  0
  -28.4669   -7.1072  -29.8753 C   0  0  0  0  0  0  0  0  0  0  0  0
    0.0000    0.0000    0.0000 C   0  0  0  0  0  0  0  0  0  0  0  0
  1  2  2  0
  1  3  1  0
  2  4  1  0
  4  5  2  0
  5  6  1  0
  6  7  2  0
  1  7  1  0
  3  8  1  0
M  END
>  <name>  (13) 
Car Nac Nd0 Car Car Car Car C3r

>  <indices>  (13) 
[0, 1, 2]

>  <tasks>  (13) 
probe_placing close_aromatic_ring close_aromatic_ring close_aromatic_ring close_aromatic_ring ring_built

>  <prot_clashes>  (13) 
0

>  <NBS phar>  (13) 
0.2

>  <NBS_non-phar>  (13) 
0.781130313873291

>  <NBS>  (13) 
0.981130313873291

>  <source_stage>  (13) 
scored

>  <source_iter>  (13) 
4

>  <source_parent_mol>  (13) 
0

>  <source_scenario>  (13) 
1 0 1 0

>  <source_rank_in_scored_call>  (13) 
0

>  <source_current_task>  (13) 
close_aromatic_ring

>  <scenario>  (13) 
1 0 1 0

>  <reason_to_skip>  (13) 
some_atom_counter_exceeded

$$$$

     RDKit          3D

  8  8  0  0  0  0  0  0  0  0999 V2000
  -27.9544   -7.5786  -31.0885 C   0  0  0  0  0  0  0  0  0  0  0  0
  -27.6252   -6.6792  -32.0546 N   0  0  0  0  0  0  0  0  0  0  0  0
  -27.6840   -8.8650  -31.2620 N   0  0  0  0  0  0  0  0  0  0  0  0
  -27.7723   -5.3521  -31.8910 C   0  0  0  0  0  0  0  0  0  0  0  0
  -28.2774   -4.8775  -30.6967 C   0  0  0  0  0  0  0  0  0  0  0  0
  -28.6304   -5.7525  -29.6749 C   0  0  0  0  0  0  0  0  0  0  0  0
  -28.4669   -7.1072  -29.8753 C   0  0  0  0  0  0  0  0  0  0  0  0
    0.0000    0.0000    0.0000 C   0  0  0  0  0  0  0  0  0  0  0  0
  1  2  2  0
  1  3  1  0
  2  4  1  0
  4  5  2  0
  5  6  1  0
  6  7  2  0
  1  7  1  0
  3  8  1  0
M  END
>  <name>  (14) 
Car Nac Nd0 Car Car Car Car C3r

>  <indices>  (14) 
[0, 1, 2]

>  <tasks>  (14) 
probe_placing close_aromatic_ring close_aromatic_ring close_aromatic_ring close_aromatic_ring ring_built

>  <prot_clashes>  (14) 
0

>  <NBS phar>  (14) 
0.2

>  <NBS_non-phar>  (14) 
0.781130313873291

>  <NBS>  (14) 
0.981130313873291

>  <source_stage>  (14) 
scored

>  <source_iter>  (14) 
4

>  <source_parent_mol>  (14) 
0

>  <source_scenario>  (14) 
1 0 1 0

>  <source_rank_in_scored_call>  (14) 
0

>  <source_current_task>  (14) 
close_aromatic_ring

>  <scenario>  (14) 
1 0 1 0

>  <reason_to_skip>  (14) 
some_atom_counter_exceeded

$$$$

     RDKit          3D

  8  8  0  0  0  0  0  0  0  0999 V2000
  -27.9544   -7.5786  -31.0885 C   0  0  0  0  0  0  0  0  0  0  0  0
  -27.6252   -6.6792  -32.0546 N   0  0  0  0  0  0  0  0  0  0  0  0
  -27.6840   -8.8650  -31.2620 N   0  0  0  0  0  0  0  0  0  0  0  0
  -27.7723   -5.3521  -31.8910 C   0  0  0  0  0  0  0  0  0  0  0  0
  -28.2774   -4.8775  -30.6967 C   0  0  0  0  0  0  0  0  0  0  0  0
  -28.6304   -5.7525  -29.6749 C   0  0  0  0  0  0  0  0  0  0  0  0
  -28.4669   -7.1072  -29.8753 C   0  0  0  0  0  0  0  0  0  0  0  0
    0.0000    0.0000    0.0000 C   0  0  0  0  0  0  0  0  0  0  0  0
  1  2  2  0
  1  3  1  0
  2  4  1  0
  4  5  2  0
  5  6  1  0
  6  7  2  0
  1  7  1  0
  3  8  1  0
M  END
>  <name>  (15) 
Car Nac Nd0 Car Car Car Car C3r

>  <indices>  (15) 
[0, 1, 2]

>  <tasks>  (15) 
probe_placing close_aromatic_ring close_aromatic_ring close_aromatic_ring close_aromatic_ring ring_built

>  <prot_clashes>  (15) 
0

>  <NBS phar>  (15) 
0.2

>  <NBS_non-phar>  (15) 
0.781130313873291

>  <NBS>  (15) 
0.981130313873291

>  <source_stage>  (15) 
scored

>  <source_iter>  (15) 
4

>  <source_parent_mol>  (15) 
0

>  <source_scenario>  (15) 
1 0 1 0

>  <source_rank_in_scored_call>  (15) 
0

>  <source_current_task>  (15) 
close_aromatic_ring

>  <scenario>  (15) 
1 0 1 0

>  <reason_to_skip>  (15) 
some_atom_counter_exceeded

$$$$

     RDKit          3D

  8  8  0  0  0  0  0  0  0  0999 V2000
  -27.9544   -7.5786  -31.0885 C   0  0  0  0  0  0  0  0  0  0  0  0
  -27.6252   -6.6792  -32.0546 N   0  0  0  0  0  0  0  0  0  0  0  0
  -27.6840   -8.8650  -31.2620 N   0  0  0  0  0  0  0  0  0  0  0  0
  -27.7723   -5.3521  -31.8910 C   0  0  0  0  0  0  0  0  0  0  0  0
  -28.2774   -4.8775  -30.6967 C   0  0  0  0  0  0  0  0  0  0  0  0
  -28.6304   -5.7525  -29.6749 C   0  0  0  0  0  0  0  0  0  0  0  0
  -28.4669   -7.1072  -29.8753 C   0  0  0  0  0  0  0  0  0  0  0  0
  -26.6084   -9.4761  -31.8501 C   0  0  0  0  0  0  0  0  0  0  0  0
  1  2  2  0
  1  3  1  0
  2  4  1  0
  4  5  2  0
  5  6  1  0
  6  7  2  0
  1  7  1  0
  3  8  1  0
M  END
>  <name>  (16) 
Car Nac Nd0 Car Car Car Car C2r

>  <indices>  (16) 
[0, 1, 2]

>  <tasks>  (16) 
probe_placing close_aromatic_ring close_aromatic_ring close_aromatic_ring close_aromatic_ring ring_built

>  <prot_clashes>  (16) 
0

>  <NBS phar>  (16) 
0.2

>  <NBS_non-phar>  (16) 
0.781130313873291

>  <NBS>  (16) 
0.981130313873291

>  <source_stage>  (16) 
scored

>  <source_iter>  (16) 
4

>  <source_parent_mol>  (16) 
0

>  <source_scenario>  (16) 
1 0 1 0

>  <source_rank_in_scored_call>  (16) 
0

>  <source_current_task>  (16) 
close_aromatic_ring

>  <scenario>  (16) 
1 0 1 0

>  <reason_to_skip>  (16) 
bad dihedral

$$$$

     RDKit          3D

  8  8  0  0  0  0  0  0  0  0999 V2000
  -27.9544   -7.5786  -31.0885 C   0  0  0  0  0  0  0  0  0  0  0  0
  -27.6252   -6.6792  -32.0546 N   0  0  0  0  0  0  0  0  0  0  0  0
  -27.6840   -8.8650  -31.2620 N   0  0  0  0  0  0  0  0  0  0  0  0
  -27.7723   -5.3521  -31.8910 C   0  0  0  0  0  0  0  0  0  0  0  0
  -28.2774   -4.8775  -30.6967 C   0  0  0  0  0  0  0  0  0  0  0  0
  -28.6304   -5.7525  -29.6749 C   0  0  0  0  0  0  0  0  0  0  0  0
  -28.4669   -7.1072  -29.8753 C   0  0  0  0  0  0  0  0  0  0  0  0
    0.0000    0.0000    0.0000 C   0  0  0  0  0  0  0  0  0  0  0  0
  1  2  2  0
  1  3  1  0
  2  4  1  0
  4  5  2  0
  5  6  1  0
  6  7  2  0
  1  7  1  0
  3  8  1  0
M  END
>  <name>  (17) 
Car Nac Nd0 Car Car Car Car C3r

>  <indices>  (17) 
[0, 1, 2]

>  <tasks>  (17) 
probe_placing close_aromatic_ring close_aromatic_ring close_aromatic_ring close_aromatic_ring ring_built

>  <prot_clashes>  (17) 
0

>  <NBS phar>  (17) 
0.2

>  <NBS_non-phar>  (17) 
0.781130313873291

>  <NBS>  (17) 
0.981130313873291

>  <source_stage>  (17) 
scored

>  <source_iter>  (17) 
4

>  <source_parent_mol>  (17) 
0

>  <source_scenario>  (17) 
1 0 1 0

>  <source_rank_in_scored_call>  (17) 
0

>  <source_current_task>  (17) 
close_aromatic_ring

>  <scenario>  (17) 
1 0 1 0

>  <reason_to_skip>  (17) 
some_atom_counter_exceeded

$$$$

     RDKit          3D

  8  8  0  0  0  0  0  0  0  0999 V2000
  -27.9544   -7.5786  -31.0885 C   0  0  0  0  0  0  0  0  0  0  0  0
  -27.6252   -6.6792  -32.0546 N   0  0  0  0  0  0  0  0  0  0  0  0
  -27.6840   -8.8650  -31.2620 N   0  0  0  0  0  0  0  0  0  0  0  0
  -27.7723   -5.3521  -31.8910 C   0  0  0  0  0  0  0  0  0  0  0  0
  -28.2774   -4.8775  -30.6967 C   0  0  0  0  0  0  0  0  0  0  0  0
  -28.6304   -5.7525  -29.6749 C   0  0  0  0  0  0  0  0  0  0  0  0
  -28.4669   -7.1072  -29.8753 C   0  0  0  0  0  0  0  0  0  0  0  0
    0.0000    0.0000    0.0000 C   0  0  0  0  0  0  0  0  0  0  0  0
  1  2  2  0
  1  3  1  0
  2  4  1  0
  4  5  2  0
  5  6  1  0
  6  7  2  0
  1  7  1  0
  3  8  1  0
M  END
>  <name>  (18) 
Car Nac Nd0 Car Car Car Car C3r

>  <indices>  (18) 
[0, 1, 2]

>  <tasks>  (18) 
probe_placing close_aromatic_ring close_aromatic_ring close_aromatic_ring close_aromatic_ring ring_built

>  <prot_clashes>  (18) 
0

>  <NBS phar>  (18) 
0.2

>  <NBS_non-phar>  (18) 
0.781130313873291

>  <NBS>  (18) 
0.981130313873291

>  <source_stage>  (18) 
scored

>  <source_iter>  (18) 
4

>  <source_parent_mol>  (18) 
0

>  <source_scenario>  (18) 
1 0 1 0

>  <source_rank_in_scored_call>  (18) 
0

>  <source_current_task>  (18) 
close_aromatic_ring

>  <scenario>  (18) 
1 0 1 0

>  <reason_to_skip>  (18) 
some_atom_counter_exceeded

$$$$

     RDKit          3D

  8  8  0  0  0  0  0  0  0  0999 V2000
  -27.9544   -7.5786  -31.0885 C   0  0  0  0  0  0  0  0  0  0  0  0
  -27.6252   -6.6792  -32.0546 N   0  0  0  0  0  0  0  0  0  0  0  0
  -27.6840   -8.8650  -31.2620 N   0  0  0  0  0  0  0  0  0  0  0  0
  -27.7723   -5.3521  -31.8910 C   0  0  0  0  0  0  0  0  0  0  0  0
  -28.2774   -4.8775  -30.6967 C   0  0  0  0  0  0  0  0  0  0  0  0
  -28.6304   -5.7525  -29.6749 C   0  0  0  0  0  0  0  0  0  0  0  0
  -28.4669   -7.1072  -29.8753 C   0  0  0  0  0  0  0  0  0  0  0  0
  -26.7033   -9.5294  -32.1610 C   0  0  0  0  0  0  0  0  0  0  0  0
  1  2  2  0
  1  3  1  0
  2  4  1  0
  4  5  2  0
  5  6  1  0
  6  7  2  0
  1  7  1  0
  3  8  1  0
M  END
>  <name>  (19) 
Car Nac Nd0 Car Car Car Car C2r

>  <indices>  (19) 
[0, 1, 2]

>  <tasks>  (19) 
probe_placing close_aromatic_ring close_aromatic_ring close_aromatic_ring close_aromatic_ring ring_built

>  <prot_clashes>  (19) 
0

>  <NBS phar>  (19) 
0.2

>  <NBS_non-phar>  (19) 
0.781130313873291

>  <NBS>  (19) 
0.981130313873291

>  <source_stage>  (19) 
scored

>  <source_iter>  (19) 
4

>  <source_parent_mol>  (19) 
0

>  <source_scenario>  (19) 
1 0 1 0

>  <source_rank_in_scored_call>  (19) 
0

>  <source_current_task>  (19) 
close_aromatic_ring

>  <scenario>  (19) 
1 0 1 0

>  <reason_to_skip>  (19) 
bad dihedral

$$$$

     RDKit          3D

  8  8  0  0  0  0  0  0  0  0999 V2000
  -27.9544   -7.5786  -31.0885 C   0  0  0  0  0  0  0  0  0  0  0  0
  -27.6252   -6.6792  -32.0546 N   0  0  0  0  0  0  0  0  0  0  0  0
  -27.6840   -8.8650  -31.2620 N   0  0  0  0  0  0  0  0  0  0  0  0
  -27.7723   -5.3521  -31.8910 C   0  0  0  0  0  0  0  0  0  0  0  0
  -28.2774   -4.8775  -30.6967 C   0  0  0  0  0  0  0  0  0  0  0  0
  -28.6304   -5.7525  -29.6749 C   0  0  0  0  0  0  0  0  0  0  0  0
  -28.4669   -7.1072  -29.8753 C   0  0  0  0  0  0  0  0  0  0  0  0
    0.0000    0.0000    0.0000 C   0  0  0  0  0  0  0  0  0  0  0  0
  1  2  2  0
  1  3  1  0
  2  4  1  0
  4  5  2  0
  5  6  1  0
  6  7  2  0
  1  7  1  0
  3  8  1  0
M  END
>  <name>  (20) 
Car Nac Nd0 Car Car Car Car C3r

>  <indices>  (20) 
[0, 1, 2]

>  <tasks>  (20) 
probe_placing close_aromatic_ring close_aromatic_ring close_aromatic_ring close_aromatic_ring ring_built

>  <prot_clashes>  (20) 
0

>  <NBS phar>  (20) 
0.2

>  <NBS_non-phar>  (20) 
0.781130313873291

>  <NBS>  (20) 
0.981130313873291

>  <source_stage>  (20) 
scored

>  <source_iter>  (20) 
4

>  <source_parent_mol>  (20) 
0

>  <source_scenario>  (20) 
1 0 1 0

>  <source_rank_in_scored_call>  (20) 
0

>  <source_current_task>  (20) 
close_aromatic_ring

>  <scenario>  (20) 
1 0 1 0

>  <reason_to_skip>  (20) 
some_atom_counter_exceeded

$$$$

     RDKit          3D

  8  8  0  0  0  0  0  0  0  0999 V2000
  -27.9544   -7.5786  -31.0885 C   0  0  0  0  0  0  0  0  0  0  0  0
  -27.6252   -6.6792  -32.0546 N   0  0  0  0  0  0  0  0  0  0  0  0
  -27.6840   -8.8650  -31.2620 N   0  0  0  0  0  0  0  0  0  0  0  0
  -27.7723   -5.3521  -31.8910 C   0  0  0  0  0  0  0  0  0  0  0  0
  -28.2774   -4.8775  -30.6967 C   0  0  0  0  0  0  0  0  0  0  0  0
  -28.6304   -5.7525  -29.6749 C   0  0  0  0  0  0  0  0  0  0  0  0
  -28.4669   -7.1072  -29.8753 C   0  0  0  0  0  0  0  0  0  0  0  0
  -28.5753   -9.9264  -31.5313 C   0  0  0  0  0  0  0  0  0  0  0  0
  1  2  2  0
  1  3  1  0
  2  4  1  0
  4  5  2  0
  5  6  1  0
  6  7  2  0
  1  7  1  0
  3  8  1  0
M  END
>  <name>  (21) 
Car Nac Nd0 Car Car Car Car C2r

>  <indices>  (21) 
[0, 1, 2]

>  <tasks>  (21) 
probe_placing close_aromatic_ring close_aromatic_ring close_aromatic_ring close_aromatic_ring ring_built

>  <prot_clashes>  (21) 
0

>  <NBS phar>  (21) 
0.2

>  <NBS_non-phar>  (21) 
0.781130313873291

>  <NBS>  (21) 
0.981130313873291

>  <source_stage>  (21) 
scored

>  <source_iter>  (21) 
4

>  <source_parent_mol>  (21) 
0

>  <source_scenario>  (21) 
1 0 1 0

>  <source_rank_in_scored_call>  (21) 
0

>  <source_current_task>  (21) 
close_aromatic_ring

>  <scenario>  (21) 
1 0 1 0

>  <reason_to_skip>  (21) 
bad dihedral

$$$$

     RDKit          3D

  8  8  0  0  0  0  0  0  0  0999 V2000
  -27.9544   -7.5786  -31.0885 C   0  0  0  0  0  0  0  0  0  0  0  0
  -27.6252   -6.6792  -32.0546 N   0  0  0  0  0  0  0  0  0  0  0  0
  -27.6840   -8.8650  -31.2620 N   0  0  0  0  0  0  0  0  0  0  0  0
  -27.7723   -5.3521  -31.8910 C   0  0  0  0  0  0  0  0  0  0  0  0
  -28.2774   -4.8775  -30.6967 C   0  0  0  0  0  0  0  0  0  0  0  0
  -28.6304   -5.7525  -29.6749 C   0  0  0  0  0  0  0  0  0  0  0  0
  -28.4669   -7.1072  -29.8753 C   0  0  0  0  0  0  0  0  0  0  0  0
  -28.6160   -9.8939  -31.4437 C   0  0  0  0  0  0  0  0  0  0  0  0
  1  2  2  0
  1  3  1  0
  2  4  1  0
  4  5  2  0
  5  6  1  0
  6  7  2  0
  1  7  1  0
  3  8  1  0
M  END
>  <name>  (22) 
Car Nac Nd0 Car Car Car Car Cs2

>  <indices>  (22) 
[0, 1, 2]

>  <tasks>  (22) 
probe_placing close_aromatic_ring close_aromatic_ring close_aromatic_ring close_aromatic_ring ring_built

>  <prot_clashes>  (22) 
0

>  <NBS phar>  (22) 
0.2

>  <NBS_non-phar>  (22) 
0.781130313873291

>  <NBS>  (22) 
0.981130313873291

>  <source_stage>  (22) 
scored

>  <source_iter>  (22) 
4

>  <source_parent_mol>  (22) 
0

>  <source_scenario>  (22) 
1 0 1 0

>  <source_rank_in_scored_call>  (22) 
0

>  <source_current_task>  (22) 
close_aromatic_ring

>  <scenario>  (22) 
1 0 1 0

>  <current_task>  (22) 
build_DB_to_Cs2

>  <reason_to_skip>  (22) 
subgraph mismatch

$$$$

     RDKit          3D

  8  8  0  0  0  0  0  0  0  0999 V2000
  -27.9544   -7.5786  -31.0885 C   0  0  0  0  0  0  0  0  0  0  0  0
  -27.6252   -6.6792  -32.0546 N   0  0  0  0  0  0  0  0  0  0  0  0
  -27.6840   -8.8650  -31.2620 N   0  0  0  0  0  0  0  0  0  0  0  0
  -27.7723   -5.3521  -31.8910 C   0  0  0  0  0  0  0  0  0  0  0  0
  -28.2774   -4.8775  -30.6967 C   0  0  0  0  0  0  0  0  0  0  0  0
  -28.6304   -5.7525  -29.6749 C   0  0  0  0  0  0  0  0  0  0  0  0
  -28.4669   -7.1072  -29.8753 C   0  0  0  0  0  0  0  0  0  0  0  0
  -27.7884   -9.9459  -30.4344 C   0  0  0  0  0  0  0  0  0  0  0  0
  1  2  2  0
  1  3  1  0
  2  4  1  0
  4  5  2  0
  5  6  1  0
  6  7  2  0
  1  7  1  0
  3  8  1  0
M  END
>  <name>  (23) 
Car Nac Nd0 Car Car Car Car Cs2

>  <indices>  (23) 
[0, 1, 2]

>  <tasks>  (23) 
probe_placing close_aromatic_ring close_aromatic_ring close_aromatic_ring close_aromatic_ring ring_built

>  <prot_clashes>  (23) 
0

>  <NBS phar>  (23) 
0.2

>  <NBS_non-phar>  (23) 
0.781130313873291

>  <NBS>  (23) 
0.981130313873291

>  <source_stage>  (23) 
scored

>  <source_iter>  (23) 
4

>  <source_parent_mol>  (23) 
0

>  <source_scenario>  (23) 
1 0 1 0

>  <source_rank_in_scored_call>  (23) 
0

>  <source_current_task>  (23) 
close_aromatic_ring

>  <scenario>  (23) 
1 0 1 0

>  <current_task>  (23) 
build_DB_to_Cs2

>  <reason_to_skip>  (23) 
subgraph mismatch

$$$$

     RDKit          3D

  8  8  0  0  0  0  0  0  0  0999 V2000
  -27.9544   -7.5786  -31.0885 C   0  0  0  0  0  0  0  0  0  0  0  0
  -27.6252   -6.6792  -32.0546 N   0  0  0  0  0  0  0  0  0  0  0  0
  -27.6840   -8.8650  -31.2620 N   0  0  0  0  0  0  0  0  0  0  0  0
  -27.7723   -5.3521  -31.8910 C   0  0  0  0  0  0  0  0  0  0  0  0
  -28.2774   -4.8775  -30.6967 C   0  0  0  0  0  0  0  0  0  0  0  0
  -28.6304   -5.7525  -29.6749 C   0  0  0  0  0  0  0  0  0  0  0  0
  -28.4669   -7.1072  -29.8753 C   0  0  0  0  0  0  0  0  0  0  0  0
  -27.2501   -9.7198  -30.0646 C   0  0  0  0  0  0  0  0  0  0  0  0
  1  2  2  0
  1  3  1  0
  2  4  1  0
  4  5  2  0
  5  6  1  0
  6  7  2  0
  1  7  1  0
  3  8  1  0
M  END
>  <name>  (24) 
Car Nac Nd0 Car Car Car Car Cs2

>  <indices>  (24) 
[0, 1, 2]

>  <tasks>  (24) 
probe_placing close_aromatic_ring close_aromatic_ring close_aromatic_ring close_aromatic_ring ring_built

>  <prot_clashes>  (24) 
0

>  <NBS phar>  (24) 
0.2

>  <NBS_non-phar>  (24) 
0.781130313873291

>  <NBS>  (24) 
0.981130313873291

>  <source_stage>  (24) 
scored

>  <source_iter>  (24) 
4

>  <source_parent_mol>  (24) 
0

>  <source_scenario>  (24) 
1 0 1 0

>  <source_rank_in_scored_call>  (24) 
0

>  <source_current_task>  (24) 
close_aromatic_ring

>  <scenario>  (24) 
1 0 1 0

>  <current_task>  (24) 
build_DB_to_Cs2

>  <reason_to_skip>  (24) 
subgraph mismatch

$$$$

     RDKit          3D

  8  8  0  0  0  0  0  0  0  0999 V2000
  -27.9544   -7.5786  -31.0885 C   0  0  0  0  0  0  0  0  0  0  0  0
  -27.6252   -6.6792  -32.0546 N   0  0  0  0  0  0  0  0  0  0  0  0
  -27.6840   -8.8650  -31.2620 N   0  0  0  0  0  0  0  0  0  0  0  0
  -27.7723   -5.3521  -31.8910 C   0  0  0  0  0  0  0  0  0  0  0  0
  -28.2774   -4.8775  -30.6967 C   0  0  0  0  0  0  0  0  0  0  0  0
  -28.6304   -5.7525  -29.6749 C   0  0  0  0  0  0  0  0  0  0  0  0
  -28.4669   -7.1072  -29.8753 C   0  0  0  0  0  0  0  0  0  0  0  0
  -27.8637   -9.6621  -32.4944 C   0  0  0  0  0  0  0  0  0  0  0  0
  1  2  2  0
  1  3  1  0
  2  4  1  0
  4  5  2  0
  5  6  1  0
  6  7  2  0
  1  7  1  0
  3  8  1  0
M  END
>  <name>  (25) 
Car Nac Nd0 Car Car Car Car Cs2

>  <indices>  (25) 
[0, 1, 2]

>  <tasks>  (25) 
probe_placing close_aromatic_ring close_aromatic_ring close_aromatic_ring close_aromatic_ring ring_built

>  <prot_clashes>  (25) 
0

>  <NBS phar>  (25) 
0.2

>  <NBS_non-phar>  (25) 
0.781130313873291

>  <NBS>  (25) 
0.981130313873291

>  <source_stage>  (25) 
scored

>  <source_iter>  (25) 
4

>  <source_parent_mol>  (25) 
0

>  <source_scenario>  (25) 
1 0 1 0

>  <source_rank_in_scored_call>  (25) 
0

>  <source_current_task>  (25) 
close_aromatic_ring

>  <scenario>  (25) 
1 0 1 0

>  <current_task>  (25) 
build_DB_to_Cs2

>  <reason_to_skip>  (25) 
subgraph mismatch

$$$$

     RDKit          3D

  8  8  0  0  0  0  0  0  0  0999 V2000
  -27.9544   -7.5786  -31.0885 C   0  0  0  0  0  0  0  0  0  0  0  0
  -27.6252   -6.6792  -32.0546 N   0  0  0  0  0  0  0  0  0  0  0  0
  -27.6840   -8.8650  -31.2620 N   0  0  0  0  0  0  0  0  0  0  0  0
  -27.7723   -5.3521  -31.8910 C   0  0  0  0  0  0  0  0  0  0  0  0
  -28.2774   -4.8775  -30.6967 C   0  0  0  0  0  0  0  0  0  0  0  0
  -28.6304   -5.7525  -29.6749 C   0  0  0  0  0  0  0  0  0  0  0  0
  -28.4669   -7.1072  -29.8753 C   0  0  0  0  0  0  0  0  0  0  0  0
  -27.1866   -9.5231  -32.3503 C   0  0  0  0  0  0  0  0  0  0  0  0
  1  2  2  0
  1  3  1  0
  2  4  1  0
  4  5  2  0
  5  6  1  0
  6  7  2  0
  1  7  1  0
  3  8  1  0
M  END
>  <name>  (26) 
Car Nac Nd0 Car Car Car Car Cs2

>  <indices>  (26) 
[0, 1, 2]

>  <tasks>  (26) 
probe_placing close_aromatic_ring close_aromatic_ring close_aromatic_ring close_aromatic_ring ring_built

>  <prot_clashes>  (26) 
0

>  <NBS phar>  (26) 
0.2

>  <NBS_non-phar>  (26) 
0.781130313873291

>  <NBS>  (26) 
0.981130313873291

>  <source_stage>  (26) 
scored

>  <source_iter>  (26) 
4

>  <source_parent_mol>  (26) 
0

>  <source_scenario>  (26) 
1 0 1 0

>  <source_rank_in_scored_call>  (26) 
0

>  <source_current_task>  (26) 
close_aromatic_ring

>  <scenario>  (26) 
1 0 1 0

>  <current_task>  (26) 
build_DB_to_Cs2

>  <reason_to_skip>  (26) 
subgraph mismatch

$$$$

     RDKit          3D

  8  8  0  0  0  0  0  0  0  0999 V2000
  -27.9544   -7.5786  -31.0885 C   0  0  0  0  0  0  0  0  0  0  0  0
  -27.6252   -6.6792  -32.0546 N   0  0  0  0  0  0  0  0  0  0  0  0
  -27.6840   -8.8650  -31.2620 N   0  0  0  0  0  0  0  0  0  0  0  0
  -27.7723   -5.3521  -31.8910 C   0  0  0  0  0  0  0  0  0  0  0  0
  -28.2774   -4.8775  -30.6967 C   0  0  0  0  0  0  0  0  0  0  0  0
  -28.6304   -5.7525  -29.6749 C   0  0  0  0  0  0  0  0  0  0  0  0
  -28.4669   -7.1072  -29.8753 C   0  0  0  0  0  0  0  0  0  0  0  0
  -28.7234   -9.9368  -31.2250 C   0  0  0  0  0  0  0  0  0  0  0  0
  1  2  2  0
  1  3  1  0
  2  4  1  0
  4  5  2  0
  5  6  1  0
  6  7  2  0
  1  7  1  0
  3  8  1  0
M  END
>  <name>  (27) 
Car Nac Nd0 Car Car Car Car Cs2

>  <indices>  (27) 
[0, 1, 2]

>  <tasks>  (27) 
probe_placing close_aromatic_ring close_aromatic_ring close_aromatic_ring close_aromatic_ring ring_built

>  <prot_clashes>  (27) 
0

>  <NBS phar>  (27) 
0.2

>  <NBS_non-phar>  (27) 
0.781130313873291

>  <NBS>  (27) 
0.981130313873291

>  <source_stage>  (27) 
scored

>  <source_iter>  (27) 
4

>  <source_parent_mol>  (27) 
0

>  <source_scenario>  (27) 
1 0 1 0

>  <source_rank_in_scored_call>  (27) 
0

>  <source_current_task>  (27) 
close_aromatic_ring

>  <scenario>  (27) 
1 0 1 0

>  <current_task>  (27) 
build_DB_to_Cs2

>  <reason_to_skip>  (27) 
subgraph mismatch

$$$$

     RDKit          3D

  8  8  0  0  0  0  0  0  0  0999 V2000
  -27.9544   -7.5786  -31.0885 C   0  0  0  0  0  0  0  0  0  0  0  0
  -27.6252   -6.6792  -32.0546 N   0  0  0  0  0  0  0  0  0  0  0  0
  -27.6840   -8.8650  -31.2620 N   0  0  0  0  0  0  0  0  0  0  0  0
  -27.7723   -5.3521  -31.8910 C   0  0  0  0  0  0  0  0  0  0  0  0
  -28.2774   -4.8775  -30.6967 C   0  0  0  0  0  0  0  0  0  0  0  0
  -28.6304   -5.7525  -29.6749 C   0  0  0  0  0  0  0  0  0  0  0  0
  -28.4669   -7.1072  -29.8753 C   0  0  0  0  0  0  0  0  0  0  0  0
  -26.4412   -9.5587  -30.9311 C   0  0  0  0  0  0  0  0  0  0  0  0
  1  2  2  0
  1  3  1  0
  2  4  1  0
  4  5  2  0
  5  6  1  0
  6  7  2  0
  1  7  1  0
  3  8  1  0
M  END
>  <name>  (28) 
Car Nac Nd0 Car Car Car Car Cs2

>  <indices>  (28) 
[0, 1, 2]

>  <tasks>  (28) 
probe_placing close_aromatic_ring close_aromatic_ring close_aromatic_ring close_aromatic_ring ring_built

>  <prot_clashes>  (28) 
0

>  <NBS phar>  (28) 
0.2

>  <NBS_non-phar>  (28) 
0.781130313873291

>  <NBS>  (28) 
0.981130313873291

>  <source_stage>  (28) 
scored

>  <source_iter>  (28) 
4

>  <source_parent_mol>  (28) 
0

>  <source_scenario>  (28) 
1 0 1 0

>  <source_rank_in_scored_call>  (28) 
0

>  <source_current_task>  (28) 
close_aromatic_ring

>  <scenario>  (28) 
1 0 1 0

>  <current_task>  (28) 
build_DB_to_Cs2

>  <reason_to_skip>  (28) 
subgraph mismatch

$$$$

     RDKit          3D

  8  8  0  0  0  0  0  0  0  0999 V2000
  -27.9544   -7.5786  -31.0885 C   0  0  0  0  0  0  0  0  0  0  0  0
  -27.6252   -6.6792  -32.0546 N   0  0  0  0  0  0  0  0  0  0  0  0
  -27.6840   -8.8650  -31.2620 N   0  0  0  0  0  0  0  0  0  0  0  0
  -27.7723   -5.3521  -31.8910 C   0  0  0  0  0  0  0  0  0  0  0  0
  -28.2774   -4.8775  -30.6967 C   0  0  0  0  0  0  0  0  0  0  0  0
  -28.6304   -5.7525  -29.6749 C   0  0  0  0  0  0  0  0  0  0  0  0
  -28.4669   -7.1072  -29.8753 C   0  0  0  0  0  0  0  0  0  0  0  0
  -26.6068   -9.4834  -30.6096 C   0  0  0  0  0  0  0  0  0  0  0  0
  1  2  2  0
  1  3  1  0
  2  4  1  0
  4  5  2  0
  5  6  1  0
  6  7  2  0
  1  7  1  0
  3  8  1  0
M  END
>  <name>  (29) 
Car Nac Nd0 Car Car Car Car Cs2

>  <indices>  (29) 
[0, 1, 2]

>  <tasks>  (29) 
probe_placing close_aromatic_ring close_aromatic_ring close_aromatic_ring close_aromatic_ring ring_built

>  <prot_clashes>  (29) 
0

>  <NBS phar>  (29) 
0.2

>  <NBS_non-phar>  (29) 
0.781130313873291

>  <NBS>  (29) 
0.981130313873291

>  <source_stage>  (29) 
scored

>  <source_iter>  (29) 
4

>  <source_parent_mol>  (29) 
0

>  <source_scenario>  (29) 
1 0 1 0

>  <source_rank_in_scored_call>  (29) 
0

>  <source_current_task>  (29) 
close_aromatic_ring

>  <scenario>  (29) 
1 0 1 0

>  <current_task>  (29) 
build_DB_to_Cs2

>  <reason_to_skip>  (29) 
subgraph mismatch

$$$$

     RDKit          3D

  8  8  0  0  0  0  0  0  0  0999 V2000
  -27.9544   -7.5786  -31.0885 C   0  0  0  0  0  0  0  0  0  0  0  0
  -27.6252   -6.6792  -32.0546 N   0  0  0  0  0  0  0  0  0  0  0  0
  -27.6840   -8.8650  -31.2620 N   0  0  0  0  0  0  0  0  0  0  0  0
  -27.7723   -5.3521  -31.8910 C   0  0  0  0  0  0  0  0  0  0  0  0
  -28.2774   -4.8775  -30.6967 C   0  0  0  0  0  0  0  0  0  0  0  0
  -28.6304   -5.7525  -29.6749 C   0  0  0  0  0  0  0  0  0  0  0  0
  -28.4669   -7.1072  -29.8753 C   0  0  0  0  0  0  0  0  0  0  0  0
  -27.3391   -9.5543  -32.5439 C   0  0  0  0  0  0  0  0  0  0  0  0
  1  2  2  0
  1  3  1  0
  2  4  1  0
  4  5  2  0
  5  6  1  0
  6  7  2  0
  1  7  1  0
  3  8  1  0
M  END
>  <name>  (30) 
Car Nac Nd0 Car Car Car Car Cs2

>  <indices>  (30) 
[0, 1, 2]

>  <tasks>  (30) 
probe_placing close_aromatic_ring close_aromatic_ring close_aromatic_ring close_aromatic_ring ring_built

>  <prot_clashes>  (30) 
0

>  <NBS phar>  (30) 
0.2

>  <NBS_non-phar>  (30) 
0.781130313873291

>  <NBS>  (30) 
0.981130313873291

>  <source_stage>  (30) 
scored

>  <source_iter>  (30) 
4

>  <source_parent_mol>  (30) 
0

>  <source_scenario>  (30) 
1 0 1 0

>  <source_rank_in_scored_call>  (30) 
0

>  <source_current_task>  (30) 
close_aromatic_ring

>  <scenario>  (30) 
1 0 1 0

>  <current_task>  (30) 
build_DB_to_Cs2

>  <reason_to_skip>  (30) 
subgraph mismatch

$$$$

     RDKit          3D

  8  8  0  0  0  0  0  0  0  0999 V2000
  -27.9544   -7.5786  -31.0885 C   0  0  0  0  0  0  0  0  0  0  0  0
  -27.6252   -6.6792  -32.0546 N   0  0  0  0  0  0  0  0  0  0  0  0
  -27.6840   -8.8650  -31.2620 N   0  0  0  0  0  0  0  0  0  0  0  0
  -27.7723   -5.3521  -31.8910 C   0  0  0  0  0  0  0  0  0  0  0  0
  -28.2774   -4.8775  -30.6967 C   0  0  0  0  0  0  0  0  0  0  0  0
  -28.6304   -5.7525  -29.6749 C   0  0  0  0  0  0  0  0  0  0  0  0
  -28.4669   -7.1072  -29.8753 C   0  0  0  0  0  0  0  0  0  0  0  0
  -26.2992   -9.2510  -31.5589 C   0  0  0  0  0  0  0  0  0  0  0  0
  1  2  2  0
  1  3  1  0
  2  4  1  0
  4  5  2  0
  5  6  1  0
  6  7  2  0
  1  7  1  0
  3  8  1  0
M  END
>  <name>  (31) 
Car Nac Nd0 Car Car Car Car Cs2

>  <indices>  (31) 
[0, 1, 2]

>  <tasks>  (31) 
probe_placing close_aromatic_ring close_aromatic_ring close_aromatic_ring close_aromatic_ring ring_built

>  <prot_clashes>  (31) 
0

>  <NBS phar>  (31) 
0.2

>  <NBS_non-phar>  (31) 
0.781130313873291

>  <NBS>  (31) 
0.981130313873291

>  <source_stage>  (31) 
scored

>  <source_iter>  (31) 
4

>  <source_parent_mol>  (31) 
0

>  <source_scenario>  (31) 
1 0 1 0

>  <source_rank_in_scored_call>  (31) 
0

>  <source_current_task>  (31) 
close_aromatic_ring

>  <scenario>  (31) 
1 0 1 0

>  <current_task>  (31) 
build_DB_to_Cs2

>  <reason_to_skip>  (31) 
subgraph mismatch

$$$$

     RDKit          3D

  8  8  0  0  0  0  0  0  0  0999 V2000
  -27.9544   -7.5786  -31.0885 C   0  0  0  0  0  0  0  0  0  0  0  0
  -27.6252   -6.6792  -32.0546 N   0  0  0  0  0  0  0  0  0  0  0  0
  -27.6840   -8.8650  -31.2620 N   0  0  0  0  0  0  0  0  0  0  0  0
  -27.7723   -5.3521  -31.8910 C   0  0  0  0  0  0  0  0  0  0  0  0
  -28.2774   -4.8775  -30.6967 C   0  0  0  0  0  0  0  0  0  0  0  0
  -28.6304   -5.7525  -29.6749 C   0  0  0  0  0  0  0  0  0  0  0  0
  -28.4669   -7.1072  -29.8753 C   0  0  0  0  0  0  0  0  0  0  0  0
  -26.4031   -9.2949  -31.2047 C   0  0  0  0  0  0  0  0  0  0  0  0
  1  2  2  0
  1  3  1  0
  2  4  1  0
  4  5  2  0
  5  6  1  0
  6  7  2  0
  1  7  1  0
  3  8  1  0
M  END
>  <name>  (32) 
Car Nac Nd0 Car Car Car Car Cs2

>  <indices>  (32) 
[0, 1, 2]

>  <tasks>  (32) 
probe_placing close_aromatic_ring close_aromatic_ring close_aromatic_ring close_aromatic_ring ring_built

>  <prot_clashes>  (32) 
0

>  <NBS phar>  (32) 
0.2

>  <NBS_non-phar>  (32) 
0.781130313873291

>  <NBS>  (32) 
0.981130313873291

>  <source_stage>  (32) 
scored

>  <source_iter>  (32) 
4

>  <source_parent_mol>  (32) 
0

>  <source_scenario>  (32) 
1 0 1 0

>  <source_rank_in_scored_call>  (32) 
0

>  <source_current_task>  (32) 
close_aromatic_ring

>  <scenario>  (32) 
1 0 1 0

>  <current_task>  (32) 
build_DB_to_Cs2

>  <reason_to_skip>  (32) 
subgraph mismatch

$$$$

     RDKit          3D

  8  8  0  0  0  0  0  0  0  0999 V2000
  -27.9544   -7.5786  -31.0885 C   0  0  0  0  0  0  0  0  0  0  0  0
  -27.6252   -6.6792  -32.0546 N   0  0  0  0  0  0  0  0  0  0  0  0
  -27.6840   -8.8650  -31.2620 N   0  0  0  0  0  0  0  0  0  0  0  0
  -27.7723   -5.3521  -31.8910 C   0  0  0  0  0  0  0  0  0  0  0  0
  -28.2774   -4.8775  -30.6967 C   0  0  0  0  0  0  0  0  0  0  0  0
  -28.6304   -5.7525  -29.6749 C   0  0  0  0  0  0  0  0  0  0  0  0
  -28.4669   -7.1072  -29.8753 C   0  0  0  0  0  0  0  0  0  0  0  0
  -28.3146   -9.5759  -32.2312 C   0  0  0  0  0  0  0  0  0  0  0  0
  1  2  2  0
  1  3  1  0
  2  4  1  0
  4  5  2  0
  5  6  1  0
  6  7  2  0
  1  7  1  0
  3  8  1  0
M  END
>  <name>  (33) 
Car Nac Nd0 Car Car Car Car Cs2

>  <indices>  (33) 
[0, 1, 2]

>  <tasks>  (33) 
probe_placing close_aromatic_ring close_aromatic_ring close_aromatic_ring close_aromatic_ring ring_built

>  <prot_clashes>  (33) 
0

>  <NBS phar>  (33) 
0.2

>  <NBS_non-phar>  (33) 
0.781130313873291

>  <NBS>  (33) 
0.981130313873291

>  <source_stage>  (33) 
scored

>  <source_iter>  (33) 
4

>  <source_parent_mol>  (33) 
0

>  <source_scenario>  (33) 
1 0 1 0

>  <source_rank_in_scored_call>  (33) 
0

>  <source_current_task>  (33) 
close_aromatic_ring

>  <scenario>  (33) 
1 0 1 0

>  <current_task>  (33) 
build_DB_to_Cs2

>  <reason_to_skip>  (33) 
subgraph mismatch

$$$$

     RDKit          3D

  8  8  0  0  0  0  0  0  0  0999 V2000
  -27.9544   -7.5786  -31.0885 C   0  0  0  0  0  0  0  0  0  0  0  0
  -27.6252   -6.6792  -32.0546 N   0  0  0  0  0  0  0  0  0  0  0  0
  -27.6840   -8.8650  -31.2620 N   0  0  0  0  0  0  0  0  0  0  0  0
  -27.7723   -5.3521  -31.8910 C   0  0  0  0  0  0  0  0  0  0  0  0
  -28.2774   -4.8775  -30.6967 C   0  0  0  0  0  0  0  0  0  0  0  0
  -28.6304   -5.7525  -29.6749 C   0  0  0  0  0  0  0  0  0  0  0  0
  -28.4669   -7.1072  -29.8753 C   0  0  0  0  0  0  0  0  0  0  0  0
  -28.6205   -9.7531  -31.8457 C   0  0  0  0  0  0  0  0  0  0  0  0
  1  2  2  0
  1  3  1  0
  2  4  1  0
  4  5  2  0
  5  6  1  0
  6  7  2  0
  1  7  1  0
  3  8  1  0
M  END
>  <name>  (34) 
Car Nac Nd0 Car Car Car Car Cs2

>  <indices>  (34) 
[0, 1, 2]

>  <tasks>  (34) 
probe_placing close_aromatic_ring close_aromatic_ring close_aromatic_ring close_aromatic_ring ring_built

>  <prot_clashes>  (34) 
0

>  <NBS phar>  (34) 
0.2

>  <NBS_non-phar>  (34) 
0.781130313873291

>  <NBS>  (34) 
0.981130313873291

>  <source_stage>  (34) 
scored

>  <source_iter>  (34) 
4

>  <source_parent_mol>  (34) 
0

>  <source_scenario>  (34) 
1 0 1 0

>  <source_rank_in_scored_call>  (34) 
0

>  <source_current_task>  (34) 
close_aromatic_ring

>  <scenario>  (34) 
1 0 1 0

>  <current_task>  (34) 
build_DB_to_Cs2

>  <reason_to_skip>  (34) 
subgraph mismatch

$$$$

     RDKit          3D

  8  8  0  0  0  0  0  0  0  0999 V2000
  -27.9544   -7.5786  -31.0885 C   0  0  0  0  0  0  0  0  0  0  0  0
  -27.6252   -6.6792  -32.0546 N   0  0  0  0  0  0  0  0  0  0  0  0
  -27.6840   -8.8650  -31.2620 N   0  0  0  0  0  0  0  0  0  0  0  0
  -27.7723   -5.3521  -31.8910 C   0  0  0  0  0  0  0  0  0  0  0  0
  -28.2774   -4.8775  -30.6967 C   0  0  0  0  0  0  0  0  0  0  0  0
  -28.6304   -5.7525  -29.6749 C   0  0  0  0  0  0  0  0  0  0  0  0
  -28.4669   -7.1072  -29.8753 C   0  0  0  0  0  0  0  0  0  0  0  0
  -28.3300   -9.8217  -30.5038 C   0  0  0  0  0  0  0  0  0  0  0  0
  1  2  2  0
  1  3  1  0
  2  4  1  0
  4  5  2  0
  5  6  1  0
  6  7  2  0
  1  7  1  0
  3  8  1  0
M  END
>  <name>  (35) 
Car Nac Nd0 Car Car Car Car C2r

>  <indices>  (35) 
[0, 1, 2]

>  <tasks>  (35) 
probe_placing close_aromatic_ring close_aromatic_ring close_aromatic_ring close_aromatic_ring ring_built

>  <prot_clashes>  (35) 
0

>  <NBS phar>  (35) 
0.2

>  <NBS_non-phar>  (35) 
0.781130313873291

>  <NBS>  (35) 
0.981130313873291

>  <source_stage>  (35) 
scored

>  <source_iter>  (35) 
4

>  <source_parent_mol>  (35) 
0

>  <source_scenario>  (35) 
1 0 1 0

>  <source_rank_in_scored_call>  (35) 
0

>  <source_current_task>  (35) 
close_aromatic_ring

>  <scenario>  (35) 
1 0 1 0

>  <current_task>  (35) 
close_aliphatic_ring

>  <reason_to_skip>  (35) 
subgraph mismatch

$$$$

     RDKit          3D

  8  8  0  0  0  0  0  0  0  0999 V2000
  -27.9544   -7.5786  -31.0885 C   0  0  0  0  0  0  0  0  0  0  0  0
  -27.6252   -6.6792  -32.0546 N   0  0  0  0  0  0  0  0  0  0  0  0
  -27.6840   -8.8650  -31.2620 N   0  0  0  0  0  0  0  0  0  0  0  0
  -27.7723   -5.3521  -31.8910 C   0  0  0  0  0  0  0  0  0  0  0  0
  -28.2774   -4.8775  -30.6967 C   0  0  0  0  0  0  0  0  0  0  0  0
  -28.6304   -5.7525  -29.6749 C   0  0  0  0  0  0  0  0  0  0  0  0
  -28.4669   -7.1072  -29.8753 C   0  0  0  0  0  0  0  0  0  0  0  0
  -27.8473   -9.7152  -30.1969 C   0  0  0  0  0  0  0  0  0  0  0  0
  1  2  2  0
  1  3  1  0
  2  4  1  0
  4  5  2  0
  5  6  1  0
  6  7  2  0
  1  7  1  0
  3  8  1  0
M  END
>  <name>  (36) 
Car Nac Nd0 Car Car Car Car C2r

>  <indices>  (36) 
[0, 1, 2]

>  <tasks>  (36) 
probe_placing close_aromatic_ring close_aromatic_ring close_aromatic_ring close_aromatic_ring ring_built

>  <prot_clashes>  (36) 
0

>  <NBS phar>  (36) 
0.2

>  <NBS_non-phar>  (36) 
0.781130313873291

>  <NBS>  (36) 
0.981130313873291

>  <source_stage>  (36) 
scored

>  <source_iter>  (36) 
4

>  <source_parent_mol>  (36) 
0

>  <source_scenario>  (36) 
1 0 1 0

>  <source_rank_in_scored_call>  (36) 
0

>  <source_current_task>  (36) 
close_aromatic_ring

>  <scenario>  (36) 
1 0 1 0

>  <current_task>  (36) 
close_aliphatic_ring

>  <reason_to_skip>  (36) 
subgraph mismatch

$$$$

     RDKit          3D

  8  8  0  0  0  0  0  0  0  0999 V2000
  -27.9544   -7.5786  -31.0885 C   0  0  0  0  0  0  0  0  0  0  0  0
  -27.6252   -6.6792  -32.0546 N   0  0  0  0  0  0  0  0  0  0  0  0
  -27.6840   -8.8650  -31.2620 N   0  0  0  0  0  0  0  0  0  0  0  0
  -27.7723   -5.3521  -31.8910 C   0  0  0  0  0  0  0  0  0  0  0  0
  -28.2774   -4.8775  -30.6967 C   0  0  0  0  0  0  0  0  0  0  0  0
  -28.6304   -5.7525  -29.6749 C   0  0  0  0  0  0  0  0  0  0  0  0
  -28.4669   -7.1072  -29.8753 C   0  0  0  0  0  0  0  0  0  0  0  0
  -27.2121   -9.4588  -32.3625 C   0  0  0  0  0  0  0  0  0  0  0  0
  1  2  2  0
  1  3  1  0
  2  4  1  0
  4  5  2  0
  5  6  1  0
  6  7  2  0
  1  7  1  0
  3  8  1  0
M  END
>  <name>  (37) 
Car Nac Nd0 Car Car Car Car C2r

>  <indices>  (37) 
[0, 1, 2]

>  <tasks>  (37) 
probe_placing close_aromatic_ring close_aromatic_ring close_aromatic_ring close_aromatic_ring ring_built

>  <prot_clashes>  (37) 
0

>  <NBS phar>  (37) 
0.2

>  <NBS_non-phar>  (37) 
0.781130313873291

>  <NBS>  (37) 
0.981130313873291

>  <source_stage>  (37) 
scored

>  <source_iter>  (37) 
4

>  <source_parent_mol>  (37) 
0

>  <source_scenario>  (37) 
1 0 1 0

>  <source_rank_in_scored_call>  (37) 
0

>  <source_current_task>  (37) 
close_aromatic_ring

>  <scenario>  (37) 
1 0 1 0

>  <current_task>  (37) 
close_aliphatic_ring

>  <reason_to_skip>  (37) 
subgraph mismatch

$$$$

     RDKit          3D

  8  8  0  0  0  0  0  0  0  0999 V2000
  -27.9544   -7.5786  -31.0885 C   0  0  0  0  0  0  0  0  0  0  0  0
  -27.6252   -6.6792  -32.0546 N   0  0  0  0  0  0  0  0  0  0  0  0
  -27.6840   -8.8650  -31.2620 N   0  0  0  0  0  0  0  0  0  0  0  0
  -27.7723   -5.3521  -31.8910 C   0  0  0  0  0  0  0  0  0  0  0  0
  -28.2774   -4.8775  -30.6967 C   0  0  0  0  0  0  0  0  0  0  0  0
  -28.6304   -5.7525  -29.6749 C   0  0  0  0  0  0  0  0  0  0  0  0
  -28.4669   -7.1072  -29.8753 C   0  0  0  0  0  0  0  0  0  0  0  0
  -27.5976   -9.8671  -30.1663 C   0  0  0  0  0  0  0  0  0  0  0  0
  1  2  2  0
  1  3  1  0
  2  4  1  0
  4  5  2  0
  5  6  1  0
  6  7  2  0
  1  7  1  0
  3  8  1  0
M  END
>  <name>  (38) 
Car Nac Nd0 Car Car Car Car C2r

>  <indices>  (38) 
[0, 1, 2]

>  <tasks>  (38) 
probe_placing close_aromatic_ring close_aromatic_ring close_aromatic_ring close_aromatic_ring ring_built

>  <prot_clashes>  (38) 
0

>  <NBS phar>  (38) 
0.2

>  <NBS_non-phar>  (38) 
0.781130313873291

>  <NBS>  (38) 
0.981130313873291

>  <source_stage>  (38) 
scored

>  <source_iter>  (38) 
4

>  <source_parent_mol>  (38) 
0

>  <source_scenario>  (38) 
1 0 1 0

>  <source_rank_in_scored_call>  (38) 
0

>  <source_current_task>  (38) 
close_aromatic_ring

>  <scenario>  (38) 
1 0 1 0

>  <current_task>  (38) 
close_aliphatic_ring

>  <reason_to_skip>  (38) 
subgraph mismatch

$$$$

     RDKit          3D

  8  8  0  0  0  0  0  0  0  0999 V2000
  -27.9544   -7.5786  -31.0885 C   0  0  0  0  0  0  0  0  0  0  0  0
  -27.6252   -6.6792  -32.0546 N   0  0  0  0  0  0  0  0  0  0  0  0
  -27.6840   -8.8650  -31.2620 N   0  0  0  0  0  0  0  0  0  0  0  0
  -27.7723   -5.3521  -31.8910 C   0  0  0  0  0  0  0  0  0  0  0  0
  -28.2774   -4.8775  -30.6967 C   0  0  0  0  0  0  0  0  0  0  0  0
  -28.6304   -5.7525  -29.6749 C   0  0  0  0  0  0  0  0  0  0  0  0
  -28.4669   -7.1072  -29.8753 C   0  0  0  0  0  0  0  0  0  0  0  0
  -27.4271   -9.4751  -32.6278 C   0  0  0  0  0  0  0  0  0  0  0  0
  1  2  2  0
  1  3  1  0
  2  4  1  0
  4  5  2  0
  5  6  1  0
  6  7  2  0
  1  7  1  0
  3  8  1  0
M  END
>  <name>  (39) 
Car Nac Nd0 Car Car Car Car C2r

>  <indices>  (39) 
[0, 1, 2]

>  <tasks>  (39) 
probe_placing close_aromatic_ring close_aromatic_ring close_aromatic_ring close_aromatic_ring ring_built

>  <prot_clashes>  (39) 
0

>  <NBS phar>  (39) 
0.2

>  <NBS_non-phar>  (39) 
0.781130313873291

>  <NBS>  (39) 
0.981130313873291

>  <source_stage>  (39) 
scored

>  <source_iter>  (39) 
4

>  <source_parent_mol>  (39) 
0

>  <source_scenario>  (39) 
1 0 1 0

>  <source_rank_in_scored_call>  (39) 
0

>  <source_current_task>  (39) 
close_aromatic_ring

>  <scenario>  (39) 
1 0 1 0

>  <current_task>  (39) 
close_aliphatic_ring

>  <reason_to_skip>  (39) 
subgraph mismatch

$$$$

     RDKit          3D

  8  8  0  0  0  0  0  0  0  0999 V2000
  -27.9544   -7.5786  -31.0885 C   0  0  0  0  0  0  0  0  0  0  0  0
  -27.6252   -6.6792  -32.0546 N   0  0  0  0  0  0  0  0  0  0  0  0
  -27.6840   -8.8650  -31.2620 N   0  0  0  0  0  0  0  0  0  0  0  0
  -27.7723   -5.3521  -31.8910 C   0  0  0  0  0  0  0  0  0  0  0  0
  -28.2774   -4.8775  -30.6967 C   0  0  0  0  0  0  0  0  0  0  0  0
  -28.6304   -5.7525  -29.6749 C   0  0  0  0  0  0  0  0  0  0  0  0
  -28.4669   -7.1072  -29.8753 C   0  0  0  0  0  0  0  0  0  0  0  0
  -28.0454   -9.4140  -30.0513 C   0  0  0  0  0  0  0  0  0  0  0  0
  1  2  2  0
  1  3  1  0
  2  4  1  0
  4  5  2  0
  5  6  1  0
  6  7  2  0
  1  7  1  0
  3  8  1  0
M  END
>  <name>  (40) 
Car Nac Nd0 Car Car Car Car C2r

>  <indices>  (40) 
[0, 1, 2]

>  <tasks>  (40) 
probe_placing close_aromatic_ring close_aromatic_ring close_aromatic_ring close_aromatic_ring ring_built

>  <prot_clashes>  (40) 
0

>  <NBS phar>  (40) 
0.2

>  <NBS_non-phar>  (40) 
0.781130313873291

>  <NBS>  (40) 
0.981130313873291

>  <source_stage>  (40) 
scored

>  <source_iter>  (40) 
4

>  <source_parent_mol>  (40) 
0

>  <source_scenario>  (40) 
1 0 1 0

>  <source_rank_in_scored_call>  (40) 
0

>  <source_current_task>  (40) 
close_aromatic_ring

>  <scenario>  (40) 
1 0 1 0

>  <initiate_ring_110>  (40) 


>  <current_task>  (40) 
close_aliphatic_ring

>  <reason_to_skip>  (40) 
subgraph mismatch

$$$$

     RDKit          3D

  8  8  0  0  0  0  0  0  0  0999 V2000
  -27.5160   -7.1660  -31.5040 C   0  0  0  0  0  0  0  0  0  0  0  0
  -27.2930   -6.2840  -32.5170 N   0  0  0  0  0  0  0  0  0  0  0  0
  -26.7550   -8.2450  -31.3860 N   0  0  0  0  0  0  0  0  0  0  0  0
  -27.9580   -5.1200  -32.6240 C   0  0  0  0  0  0  0  0  0  0  0  0
  -28.9060   -4.8020  -31.6730 C   0  0  0  0  0  0  0  0  0  0  0  0
  -29.1750   -5.6660  -30.6170 C   0  0  0  0  0  0  0  0  0  0  0  0
  -28.4760   -6.8520  -30.5360 C   0  0  0  0  0  0  0  0  0  0  0  0
  -25.4490   -8.1640  -31.1480 C   0  0  0  0  0  0  0  0  0  0  0  0
  1  2  2  0
  1  3  1  0
  1  7  1  0
  2  4  1  0
  3  8  1  0
  4  5  2  0
  5  6  1  0
  6  7  2  0
M  END
>  <name>  (41) 
Car Nac Nd0 Car Car Car Car Car

>  <indices>  (41) 
[0, 1, 2]

>  <tasks>  (41) 
probe_placing close_aromatic_ring close_aromatic_ring close_aromatic_ring close_aromatic_ring ring_built

>  <prot_clashes>  (41) 
0

>  <NBS phar>  (41) 
0.2

>  <NBS_non-phar>  (41) 
0.781130313873291

>  <NBS>  (41) 
0.981130313873291

>  <source_stage>  (41) 
scored

>  <source_iter>  (41) 
4

>  <source_parent_mol>  (41) 
0

>  <source_scenario>  (41) 
1 0 1 0

>  <source_rank_in_scored_call>  (41) 
0

>  <source_current_task>  (41) 
close_aromatic_ring

>  <scenario>  (41) 
1 0 1 0

>  <current_task>  (41) 
close_aromatic_ring

>  <reason_to_skip>  (41) 
too many clashes (15 with max 8)

$$$$

     RDKit          3D

  9  9  0  0  0  0  0  0  0  0999 V2000
  -27.9544   -7.5786  -31.0885 C   0  0  0  0  0  0  0  0  0  0  0  0
  -27.6252   -6.6792  -32.0546 N   0  0  0  0  0  0  0  0  0  0  0  0
  -27.6840   -8.8650  -31.2620 N   0  0  0  0  0  0  0  0  0  0  0  0
  -27.7723   -5.3521  -31.8910 C   0  0  0  0  0  0  0  0  0  0  0  0
  -28.2774   -4.8775  -30.6967 C   0  0  0  0  0  0  0  0  0  0  0  0
  -28.6304   -5.7525  -29.6749 C   0  0  0  0  0  0  0  0  0  0  0  0
  -28.4669   -7.1072  -29.8753 C   0  0  0  0  0  0  0  0  0  0  0  0
  -28.0565   -9.4014  -29.9740 C   0  0  0  0  0  0  0  0  0  0  0  0
  -28.5288   -8.8961  -28.8509 C   0  0  0  0  0  0  0  0  0  0  0  0
  1  2  2  0
  1  3  1  0
  2  4  1  0
  4  5  2  0
  5  6  1  0
  6  7  2  0
  1  7  1  0
  3  8  1  0
  8  9  2  0
M  END
>  <name>  (1) 
Car Nac Nd0 Car Car Car Car Car Car

>  <indices>  (1) 
[0, 1, 2]

>  <tasks>  (1) 
probe_placing close_aromatic_ring close_aromatic_ring close_aromatic_ring close_aromatic_ring ring_built build_to_Nd0

>  <prot_clashes>  (1) 
1

>  <NBS phar>  (1) 
0.2

>  <NBS_non-phar>  (1) 
0.8053122758865356

>  <NBS>  (1) 
1.0053122758865356

>  <source_stage>  (1) 
scored

>  <source_iter>  (1) 
5

>  <source_parent_mol>  (1) 
0

>  <source_scenario>  (1) 
1 0 1 0 0

>  <source_rank_in_scored_call>  (1) 
0

>  <source_current_task>  (1) 
build_to_Nd0

>  <scenario>  (1) 
1 0 1 0 0

>  <initiate_ring_110>  (1) 


>  <current_task>  (1) 
close_aromatic_ring

>  <rotatable_bond_torsions>  (1) 
1,0,2,7

>  <reason_to_skip>  (1) 
bad angles

$$$$

     RDKit          3D

  9  9  0  0  0  0  0  0  0  0999 V2000
  -27.9544   -7.5786  -31.0885 C   0  0  0  0  0  0  0  0  0  0  0  0
  -27.6252   -6.6792  -32.0546 N   0  0  0  0  0  0  0  0  0  0  0  0
  -27.6840   -8.8650  -31.2620 N   0  0  0  0  0  0  0  0  0  0  0  0
  -27.7723   -5.3521  -31.8910 C   0  0  0  0  0  0  0  0  0  0  0  0
  -28.2774   -4.8775  -30.6967 C   0  0  0  0  0  0  0  0  0  0  0  0
  -28.6304   -5.7525  -29.6749 C   0  0  0  0  0  0  0  0  0  0  0  0
  -28.4669   -7.1072  -29.8753 C   0  0  0  0  0  0  0  0  0  0  0  0
  -28.0565   -9.4014  -29.9740 C   0  0  0  0  0  0  0  0  0  0  0  0
    0.0000    0.0000    0.0000 S   0  0  0  0  0  0  0  0  0  0  0  0
  1  2  2  0
  1  3  1  0
  2  4  1  0
  4  5  2  0
  5  6  1  0
  6  7  2  0
  1  7  1  0
  3  8  1  0
  8  9  1  0
M  END
>  <name>  (2) 
Car Nac Nd0 Car Car Car Car Car Sul

>  <indices>  (2) 
[0, 1, 2]

>  <tasks>  (2) 
probe_placing close_aromatic_ring close_aromatic_ring close_aromatic_ring close_aromatic_ring ring_built build_to_Nd0

>  <prot_clashes>  (2) 
1

>  <NBS phar>  (2) 
0.2

>  <NBS_non-phar>  (2) 
0.8053122758865356

>  <NBS>  (2) 
1.0053122758865356

>  <source_stage>  (2) 
scored

>  <source_iter>  (2) 
5

>  <source_parent_mol>  (2) 
0

>  <source_scenario>  (2) 
1 0 1 0 0

>  <source_rank_in_scored_call>  (2) 
0

>  <source_current_task>  (2) 
build_to_Nd0

>  <scenario>  (2) 
1 0 1 0 0

>  <initiate_ring_110>  (2) 


>  <current_task>  (2) 
close_aromatic_ring

>  <rotatable_bond_torsions>  (2) 
1,0,2,7

>  <reason_to_skip>  (2) 
some_atom_counter_exceeded

$$$$

     RDKit          3D

  9  9  0  0  0  0  0  0  0  0999 V2000
  -27.9544   -7.5786  -31.0885 C   0  0  0  0  0  0  0  0  0  0  0  0
  -27.6252   -6.6792  -32.0546 N   0  0  0  0  0  0  0  0  0  0  0  0
  -27.6840   -8.8650  -31.2620 N   0  0  0  0  0  0  0  0  0  0  0  0
  -27.7723   -5.3521  -31.8910 C   0  0  0  0  0  0  0  0  0  0  0  0
  -28.2774   -4.8775  -30.6967 C   0  0  0  0  0  0  0  0  0  0  0  0
  -28.6304   -5.7525  -29.6749 C   0  0  0  0  0  0  0  0  0  0  0  0
  -28.4669   -7.1072  -29.8753 C   0  0  0  0  0  0  0  0  0  0  0  0
  -28.0565   -9.4014  -29.9740 C   0  0  0  0  0  0  0  0  0  0  0  0
    0.0000    0.0000    0.0000 S   0  0  0  0  0  0  0  0  0  0  0  0
  1  2  2  0
  1  3  1  0
  2  4  1  0
  4  5  2  0
  5  6  1  0
  6  7  2  0
  1  7  1  0
  3  8  1  0
  8  9  1  0
M  END
>  <name>  (3) 
Car Nac Nd0 Car Car Car Car Car Sul

>  <indices>  (3) 
[0, 1, 2]

>  <tasks>  (3) 
probe_placing close_aromatic_ring close_aromatic_ring close_aromatic_ring close_aromatic_ring ring_built build_to_Nd0

>  <prot_clashes>  (3) 
1

>  <NBS phar>  (3) 
0.2

>  <NBS_non-phar>  (3) 
0.8053122758865356

>  <NBS>  (3) 
1.0053122758865356

>  <source_stage>  (3) 
scored

>  <source_iter>  (3) 
5

>  <source_parent_mol>  (3) 
0

>  <source_scenario>  (3) 
1 0 1 0 0

>  <source_rank_in_scored_call>  (3) 
0

>  <source_current_task>  (3) 
build_to_Nd0

>  <scenario>  (3) 
1 0 1 0 0

>  <initiate_ring_110>  (3) 


>  <current_task>  (3) 
close_aromatic_ring

>  <rotatable_bond_torsions>  (3) 
1,0,2,7

>  <reason_to_skip>  (3) 
some_atom_counter_exceeded

$$$$

     RDKit          3D

  9  9  0  0  0  0  0  0  0  0999 V2000
  -27.9544   -7.5786  -31.0885 C   0  0  0  0  0  0  0  0  0  0  0  0
  -27.6252   -6.6792  -32.0546 N   0  0  0  0  0  0  0  0  0  0  0  0
  -27.6840   -8.8650  -31.2620 N   0  0  0  0  0  0  0  0  0  0  0  0
  -27.7723   -5.3521  -31.8910 C   0  0  0  0  0  0  0  0  0  0  0  0
  -28.2774   -4.8775  -30.6967 C   0  0  0  0  0  0  0  0  0  0  0  0
  -28.6304   -5.7525  -29.6749 C   0  0  0  0  0  0  0  0  0  0  0  0
  -28.4669   -7.1072  -29.8753 C   0  0  0  0  0  0  0  0  0  0  0  0
  -28.0565   -9.4014  -29.9740 C   0  0  0  0  0  0  0  0  0  0  0  0
  -27.8323   -9.1015  -28.7511 N   0  0  0  0  0  0  0  0  0  0  0  0
  1  2  2  0
  1  3  1  0
  2  4  1  0
  4  5  2  0
  5  6  1  0
  6  7  2  0
  1  7  1  0
  3  8  1  0
  8  9  2  0
M  END
>  <name>  (4) 
Car Nac Nd0 Car Car Car Car Car Nac

>  <indices>  (4) 
[0, 1, 2]

>  <tasks>  (4) 
probe_placing close_aromatic_ring close_aromatic_ring close_aromatic_ring close_aromatic_ring ring_built build_to_Nd0

>  <prot_clashes>  (4) 
1

>  <NBS phar>  (4) 
0.2

>  <NBS_non-phar>  (4) 
0.8053122758865356

>  <NBS>  (4) 
1.0053122758865356

>  <source_stage>  (4) 
scored

>  <source_iter>  (4) 
5

>  <source_parent_mol>  (4) 
0

>  <source_scenario>  (4) 
1 0 1 0 0

>  <source_rank_in_scored_call>  (4) 
0

>  <source_current_task>  (4) 
build_to_Nd0

>  <scenario>  (4) 
1 0 1 0 0

>  <initiate_ring_110>  (4) 


>  <current_task>  (4) 
close_aromatic_ring

>  <rotatable_bond_torsions>  (4) 
1,0,2,7

>  <reason_to_skip>  (4) 
bad angles

$$$$

     RDKit          3D

  9  9  0  0  0  0  0  0  0  0999 V2000
  -27.9544   -7.5786  -31.0885 C   0  0  0  0  0  0  0  0  0  0  0  0
  -27.6252   -6.6792  -32.0546 N   0  0  0  0  0  0  0  0  0  0  0  0
  -27.6840   -8.8650  -31.2620 N   0  0  0  0  0  0  0  0  0  0  0  0
  -27.7723   -5.3521  -31.8910 C   0  0  0  0  0  0  0  0  0  0  0  0
  -28.2774   -4.8775  -30.6967 C   0  0  0  0  0  0  0  0  0  0  0  0
  -28.6304   -5.7525  -29.6749 C   0  0  0  0  0  0  0  0  0  0  0  0
  -28.4669   -7.1072  -29.8753 C   0  0  0  0  0  0  0  0  0  0  0  0
  -28.0565   -9.4014  -29.9740 C   0  0  0  0  0  0  0  0  0  0  0  0
    0.0000    0.0000    0.0000 O   0  0  0  0  0  0  0  0  0  0  0  0
  1  2  2  0
  1  3  1  0
  2  4  1  0
  4  5  2  0
  5  6  1  0
  6  7  2  0
  1  7  1  0
  3  8  1  0
  8  9  1  0
M  END
>  <name>  (5) 
Car Nac Nd0 Car Car Car Car Car O_a

>  <indices>  (5) 
[0, 1, 2]

>  <tasks>  (5) 
probe_placing close_aromatic_ring close_aromatic_ring close_aromatic_ring close_aromatic_ring ring_built build_to_Nd0

>  <prot_clashes>  (5) 
1

>  <NBS phar>  (5) 
0.2

>  <NBS_non-phar>  (5) 
0.8053122758865356

>  <NBS>  (5) 
1.0053122758865356

>  <source_stage>  (5) 
scored

>  <source_iter>  (5) 
5

>  <source_parent_mol>  (5) 
0

>  <source_scenario>  (5) 
1 0 1 0 0

>  <source_rank_in_scored_call>  (5) 
0

>  <source_current_task>  (5) 
build_to_Nd0

>  <scenario>  (5) 
1 0 1 0 0

>  <initiate_ring_110>  (5) 


>  <current_task>  (5) 
close_aromatic_ring

>  <rotatable_bond_torsions>  (5) 
1,0,2,7

>  <reason_to_skip>  (5) 
some_atom_counter_exceeded

$$$$

     RDKit          3D

  9  9  0  0  0  0  0  0  0  0999 V2000
  -27.9544   -7.5786  -31.0885 C   0  0  0  0  0  0  0  0  0  0  0  0
  -27.6252   -6.6792  -32.0546 N   0  0  0  0  0  0  0  0  0  0  0  0
  -27.6840   -8.8650  -31.2620 N   0  0  0  0  0  0  0  0  0  0  0  0
  -27.7723   -5.3521  -31.8910 C   0  0  0  0  0  0  0  0  0  0  0  0
  -28.2774   -4.8775  -30.6967 C   0  0  0  0  0  0  0  0  0  0  0  0
  -28.6304   -5.7525  -29.6749 C   0  0  0  0  0  0  0  0  0  0  0  0
  -28.4669   -7.1072  -29.8753 C   0  0  0  0  0  0  0  0  0  0  0  0
  -28.0565   -9.4014  -29.9740 C   0  0  0  0  0  0  0  0  0  0  0  0
    0.0000    0.0000    0.0000 S   0  0  0  0  0  0  0  0  0  0  0  0
  1  2  2  0
  1  3  1  0
  2  4  1  0
  4  5  2  0
  5  6  1  0
  6  7  2  0
  1  7  1  0
  3  8  1  0
  8  9  1  0
M  END
>  <name>  (6) 
Car Nac Nd0 Car Car Car Car Car Sul

>  <indices>  (6) 
[0, 1, 2]

>  <tasks>  (6) 
probe_placing close_aromatic_ring close_aromatic_ring close_aromatic_ring close_aromatic_ring ring_built build_to_Nd0

>  <prot_clashes>  (6) 
1

>  <NBS phar>  (6) 
0.2

>  <NBS_non-phar>  (6) 
0.8053122758865356

>  <NBS>  (6) 
1.0053122758865356

>  <source_stage>  (6) 
scored

>  <source_iter>  (6) 
5

>  <source_parent_mol>  (6) 
0

>  <source_scenario>  (6) 
1 0 1 0 0

>  <source_rank_in_scored_call>  (6) 
0

>  <source_current_task>  (6) 
build_to_Nd0

>  <scenario>  (6) 
1 0 1 0 0

>  <initiate_ring_110>  (6) 


>  <current_task>  (6) 
close_aromatic_ring

>  <rotatable_bond_torsions>  (6) 
1,0,2,7

>  <reason_to_skip>  (6) 
some_atom_counter_exceeded

$$$$

     RDKit          3D

  9  9  0  0  0  0  0  0  0  0999 V2000
  -27.9544   -7.5786  -31.0885 C   0  0  0  0  0  0  0  0  0  0  0  0
  -27.6252   -6.6792  -32.0546 N   0  0  0  0  0  0  0  0  0  0  0  0
  -27.6840   -8.8650  -31.2620 N   0  0  0  0  0  0  0  0  0  0  0  0
  -27.7723   -5.3521  -31.8910 C   0  0  0  0  0  0  0  0  0  0  0  0
  -28.2774   -4.8775  -30.6967 C   0  0  0  0  0  0  0  0  0  0  0  0
  -28.6304   -5.7525  -29.6749 C   0  0  0  0  0  0  0  0  0  0  0  0
  -28.4669   -7.1072  -29.8753 C   0  0  0  0  0  0  0  0  0  0  0  0
  -28.0565   -9.4014  -29.9740 C   0  0  0  0  0  0  0  0  0  0  0  0
  -29.3017   -9.9904  -29.6024 N   0  0  0  0  0  0  0  0  0  0  0  0
  1  2  2  0
  1  3  1  0
  2  4  1  0
  4  5  2  0
  5  6  1  0
  6  7  2  0
  1  7  1  0
  3  8  1  0
  8  9  1  0
M  END
>  <name>  (7) 
Car Nac Nd0 Car Car Car Car Car Nac

>  <indices>  (7) 
[0, 1, 2]

>  <tasks>  (7) 
probe_placing close_aromatic_ring close_aromatic_ring close_aromatic_ring close_aromatic_ring ring_built build_to_Nd0

>  <prot_clashes>  (7) 
1

>  <NBS phar>  (7) 
0.2

>  <NBS_non-phar>  (7) 
0.8053122758865356

>  <NBS>  (7) 
1.0053122758865356

>  <source_stage>  (7) 
scored

>  <source_iter>  (7) 
5

>  <source_parent_mol>  (7) 
0

>  <source_scenario>  (7) 
1 0 1 0 0

>  <source_rank_in_scored_call>  (7) 
0

>  <source_current_task>  (7) 
build_to_Nd0

>  <scenario>  (7) 
1 0 1 0 0

>  <initiate_ring_110>  (7) 


>  <current_task>  (7) 
close_aromatic_ring

>  <rotatable_bond_torsions>  (7) 
1,0,2,7

>  <reason_to_skip>  (7) 
bad dihedral

$$$$

     RDKit          3D

  9  9  0  0  0  0  0  0  0  0999 V2000
  -27.9544   -7.5786  -31.0885 C   0  0  0  0  0  0  0  0  0  0  0  0
  -27.6252   -6.6792  -32.0546 N   0  0  0  0  0  0  0  0  0  0  0  0
  -27.6840   -8.8650  -31.2620 N   0  0  0  0  0  0  0  0  0  0  0  0
  -27.7723   -5.3521  -31.8910 C   0  0  0  0  0  0  0  0  0  0  0  0
  -28.2774   -4.8775  -30.6967 C   0  0  0  0  0  0  0  0  0  0  0  0
  -28.6304   -5.7525  -29.6749 C   0  0  0  0  0  0  0  0  0  0  0  0
  -28.4669   -7.1072  -29.8753 C   0  0  0  0  0  0  0  0  0  0  0  0
  -28.0565   -9.4014  -29.9740 C   0  0  0  0  0  0  0  0  0  0  0  0
  -28.5501   -8.7867  -28.8167 C   0  0  0  0  0  0  0  0  0  0  0  0
  1  2  2  0
  1  3  1  0
  2  4  1  0
  4  5  2  0
  5  6  1  0
  6  7  2  0
  1  7  1  0
  3  8  1  0
  8  9  1  0
M  END
>  <name>  (8) 
Car Nac Nd0 Car Car Car Car Car Car

>  <indices>  (8) 
[0, 1, 2]

>  <tasks>  (8) 
probe_placing close_aromatic_ring close_aromatic_ring close_aromatic_ring close_aromatic_ring ring_built build_to_Nd0

>  <prot_clashes>  (8) 
1

>  <NBS phar>  (8) 
0.2

>  <NBS_non-phar>  (8) 
0.8053122758865356

>  <NBS>  (8) 
1.0053122758865356

>  <source_stage>  (8) 
scored

>  <source_iter>  (8) 
5

>  <source_parent_mol>  (8) 
0

>  <source_scenario>  (8) 
1 0 1 0 0

>  <source_rank_in_scored_call>  (8) 
0

>  <source_current_task>  (8) 
build_to_Nd0

>  <scenario>  (8) 
1 0 1 0 0

>  <initiate_ring_110>  (8) 


>  <current_task>  (8) 
close_aromatic_ring

>  <rotatable_bond_torsions>  (8) 
1,0,2,7

>  <reason_to_skip>  (8) 
intramol clashes

$$$$

     RDKit          3D

  9  9  0  0  0  0  0  0  0  0999 V2000
  -27.9544   -7.5786  -31.0885 C   0  0  0  0  0  0  0  0  0  0  0  0
  -27.6252   -6.6792  -32.0546 N   0  0  0  0  0  0  0  0  0  0  0  0
  -27.6840   -8.8650  -31.2620 N   0  0  0  0  0  0  0  0  0  0  0  0
  -27.7723   -5.3521  -31.8910 C   0  0  0  0  0  0  0  0  0  0  0  0
  -28.2774   -4.8775  -30.6967 C   0  0  0  0  0  0  0  0  0  0  0  0
  -28.6304   -5.7525  -29.6749 C   0  0  0  0  0  0  0  0  0  0  0  0
  -28.4669   -7.1072  -29.8753 C   0  0  0  0  0  0  0  0  0  0  0  0
  -28.0565   -9.4014  -29.9740 C   0  0  0  0  0  0  0  0  0  0  0  0
  -28.5254   -8.7907  -28.9754 N   0  0  0  0  0  0  0  0  0  0  0  0
  1  2  2  0
  1  3  1  0
  2  4  1  0
  4  5  2  0
  5  6  1  0
  6  7  2  0
  1  7  1  0
  3  8  1  0
  8  9  1  0
M  END
>  <name>  (9) 
Car Nac Nd0 Car Car Car Car Car Nd0

>  <indices>  (9) 
[0, 1, 2]

>  <tasks>  (9) 
probe_placing close_aromatic_ring close_aromatic_ring close_aromatic_ring close_aromatic_ring ring_built build_to_Nd0

>  <prot_clashes>  (9) 
1

>  <NBS phar>  (9) 
0.2

>  <NBS_non-phar>  (9) 
0.8053122758865356

>  <NBS>  (9) 
1.0053122758865356

>  <source_stage>  (9) 
scored

>  <source_iter>  (9) 
5

>  <source_parent_mol>  (9) 
0

>  <source_scenario>  (9) 
1 0 1 0 0

>  <source_rank_in_scored_call>  (9) 
0

>  <source_current_task>  (9) 
build_to_Nd0

>  <scenario>  (9) 
1 0 1 0 0

>  <initiate_ring_110>  (9) 


>  <current_task>  (9) 
close_aromatic_ring

>  <rotatable_bond_torsions>  (9) 
1,0,2,7

>  <reason_to_skip>  (9) 
intramol clashes

$$$$

     RDKit          3D

  9  9  0  0  0  0  0  0  0  0999 V2000
  -27.9544   -7.5786  -31.0885 C   0  0  0  0  0  0  0  0  0  0  0  0
  -27.6252   -6.6792  -32.0546 N   0  0  0  0  0  0  0  0  0  0  0  0
  -27.6840   -8.8650  -31.2620 N   0  0  0  0  0  0  0  0  0  0  0  0
  -27.7723   -5.3521  -31.8910 C   0  0  0  0  0  0  0  0  0  0  0  0
  -28.2774   -4.8775  -30.6967 C   0  0  0  0  0  0  0  0  0  0  0  0
  -28.6304   -5.7525  -29.6749 C   0  0  0  0  0  0  0  0  0  0  0  0
  -28.4669   -7.1072  -29.8753 C   0  0  0  0  0  0  0  0  0  0  0  0
  -28.0565   -9.4014  -29.9740 C   0  0  0  0  0  0  0  0  0  0  0  0
  -27.6622  -10.8007  -29.8469 N   0  0  0  0  0  0  0  0  0  0  0  0
  1  2  2  0
  1  3  1  0
  2  4  1  0
  4  5  2  0
  5  6  1  0
  6  7  2  0
  1  7  1  0
  3  8  1  0
  8  9  1  0
M  END
>  <name>  (10) 
Car Nac Nd0 Car Car Car Car Car Nd0

>  <indices>  (10) 
[0, 1, 2]

>  <tasks>  (10) 
probe_placing close_aromatic_ring close_aromatic_ring close_aromatic_ring close_aromatic_ring ring_built build_to_Nd0

>  <prot_clashes>  (10) 
1

>  <NBS phar>  (10) 
0.2

>  <NBS_non-phar>  (10) 
0.8053122758865356

>  <NBS>  (10) 
1.0053122758865356

>  <source_stage>  (10) 
scored

>  <source_iter>  (10) 
5

>  <source_parent_mol>  (10) 
0

>  <source_scenario>  (10) 
1 0 1 0 0

>  <source_rank_in_scored_call>  (10) 
0

>  <source_current_task>  (10) 
build_to_Nd0

>  <scenario>  (10) 
1 0 1 0 0

>  <initiate_ring_110>  (10) 


>  <current_task>  (10) 
close_aromatic_ring

>  <rotatable_bond_torsions>  (10) 
1,0,2,7

>  <reason_to_skip>  (10) 
subgraph mismatch

$$$$

     RDKit          3D

  9  9  0  0  0  0  0  0  0  0999 V2000
  -27.9544   -7.5786  -31.0885 C   0  0  0  0  0  0  0  0  0  0  0  0
  -27.6252   -6.6792  -32.0546 N   0  0  0  0  0  0  0  0  0  0  0  0
  -27.6840   -8.8650  -31.2620 N   0  0  0  0  0  0  0  0  0  0  0  0
  -27.7723   -5.3521  -31.8910 C   0  0  0  0  0  0  0  0  0  0  0  0
  -28.2774   -4.8775  -30.6967 C   0  0  0  0  0  0  0  0  0  0  0  0
  -28.6304   -5.7525  -29.6749 C   0  0  0  0  0  0  0  0  0  0  0  0
  -28.4669   -7.1072  -29.8753 C   0  0  0  0  0  0  0  0  0  0  0  0
  -28.0565   -9.4014  -29.9740 C   0  0  0  0  0  0  0  0  0  0  0  0
  -27.7539  -10.8310  -29.8921 N   0  0  0  0  0  0  0  0  0  0  0  0
  1  2  2  0
  1  3  1  0
  2  4  1  0
  4  5  2  0
  5  6  1  0
  6  7  2  0
  1  7  1  0
  3  8  1  0
  8  9  2  0
M  END
>  <name>  (11) 
Car Nac Nd0 Car Car Car Car Car Nac

>  <indices>  (11) 
[0, 1, 2]

>  <tasks>  (11) 
probe_placing close_aromatic_ring close_aromatic_ring close_aromatic_ring close_aromatic_ring ring_built build_to_Nd0

>  <prot_clashes>  (11) 
1

>  <NBS phar>  (11) 
0.2

>  <NBS_non-phar>  (11) 
0.8053122758865356

>  <NBS>  (11) 
1.0053122758865356

>  <source_stage>  (11) 
scored

>  <source_iter>  (11) 
5

>  <source_parent_mol>  (11) 
0

>  <source_scenario>  (11) 
1 0 1 0 0

>  <source_rank_in_scored_call>  (11) 
0

>  <source_current_task>  (11) 
build_to_Nd0

>  <scenario>  (11) 
1 0 1 0 0

>  <initiate_ring_110>  (11) 


>  <current_task>  (11) 
close_aromatic_ring

>  <rotatable_bond_torsions>  (11) 
1,0,2,7

>  <reason_to_skip>  (11) 
subgraph mismatch

$$$$

     RDKit          3D

  9  9  0  0  0  0  0  0  0  0999 V2000
  -27.9544   -7.5786  -31.0885 C   0  0  0  0  0  0  0  0  0  0  0  0
  -27.6252   -6.6792  -32.0546 N   0  0  0  0  0  0  0  0  0  0  0  0
  -27.6840   -8.8650  -31.2620 N   0  0  0  0  0  0  0  0  0  0  0  0
  -27.7723   -5.3521  -31.8910 C   0  0  0  0  0  0  0  0  0  0  0  0
  -28.2774   -4.8775  -30.6967 C   0  0  0  0  0  0  0  0  0  0  0  0
  -28.6304   -5.7525  -29.6749 C   0  0  0  0  0  0  0  0  0  0  0  0
  -28.4669   -7.1072  -29.8753 C   0  0  0  0  0  0  0  0  0  0  0  0
  -28.0565   -9.4014  -29.9740 C   0  0  0  0  0  0  0  0  0  0  0  0
  -29.1101  -10.2785  -29.8624 N   0  0  0  0  0  0  0  0  0  0  0  0
  1  2  2  0
  1  3  1  0
  2  4  1  0
  4  5  2  0
  5  6  1  0
  6  7  2  0
  1  7  1  0
  3  8  1  0
  8  9  2  0
M  END
>  <name>  (12) 
Car Nac Nd0 Car Car Car Car Car Nac

>  <indices>  (12) 
[0, 1, 2]

>  <tasks>  (12) 
probe_placing close_aromatic_ring close_aromatic_ring close_aromatic_ring close_aromatic_ring ring_built build_to_Nd0

>  <prot_clashes>  (12) 
1

>  <NBS phar>  (12) 
0.2

>  <NBS_non-phar>  (12) 
0.8053122758865356

>  <NBS>  (12) 
1.0053122758865356

>  <source_stage>  (12) 
scored

>  <source_iter>  (12) 
5

>  <source_parent_mol>  (12) 
0

>  <source_scenario>  (12) 
1 0 1 0 0

>  <source_rank_in_scored_call>  (12) 
0

>  <source_current_task>  (12) 
build_to_Nd0

>  <scenario>  (12) 
1 0 1 0 0

>  <initiate_ring_110>  (12) 


>  <current_task>  (12) 
close_aromatic_ring

>  <rotatable_bond_torsions>  (12) 
1,0,2,7

>  <reason_to_skip>  (12) 
subgraph mismatch

$$$$

     RDKit          3D

  9  9  0  0  0  0  0  0  0  0999 V2000
  -27.9544   -7.5786  -31.0885 C   0  0  0  0  0  0  0  0  0  0  0  0
  -27.6252   -6.6792  -32.0546 N   0  0  0  0  0  0  0  0  0  0  0  0
  -27.6840   -8.8650  -31.2620 N   0  0  0  0  0  0  0  0  0  0  0  0
  -27.7723   -5.3521  -31.8910 C   0  0  0  0  0  0  0  0  0  0  0  0
  -28.2774   -4.8775  -30.6967 C   0  0  0  0  0  0  0  0  0  0  0  0
  -28.6304   -5.7525  -29.6749 C   0  0  0  0  0  0  0  0  0  0  0  0
  -28.4669   -7.1072  -29.8753 C   0  0  0  0  0  0  0  0  0  0  0  0
  -28.0565   -9.4014  -29.9740 C   0  0  0  0  0  0  0  0  0  0  0  0
  -27.9589  -10.9332  -30.0070 C   0  0  0  0  0  0  0  0  0  0  0  0
  1  2  2  0
  1  3  1  0
  2  4  1  0
  4  5  2  0
  5  6  1  0
  6  7  2  0
  1  7  1  0
  3  8  1  0
  8  9  2  0
M  END
>  <name>  (13) 
Car Nac Nd0 Car Car Car Car Car Car

>  <indices>  (13) 
[0, 1, 2]

>  <tasks>  (13) 
probe_placing close_aromatic_ring close_aromatic_ring close_aromatic_ring close_aromatic_ring ring_built build_to_Nd0

>  <prot_clashes>  (13) 
1

>  <NBS phar>  (13) 
0.2

>  <NBS_non-phar>  (13) 
0.8053122758865356

>  <NBS>  (13) 
1.0053122758865356

>  <source_stage>  (13) 
scored

>  <source_iter>  (13) 
5

>  <source_parent_mol>  (13) 
0

>  <source_scenario>  (13) 
1 0 1 0 0

>  <source_rank_in_scored_call>  (13) 
0

>  <source_current_task>  (13) 
build_to_Nd0

>  <scenario>  (13) 
1 0 1 0 0

>  <initiate_ring_110>  (13) 


>  <current_task>  (13) 
close_aromatic_ring

>  <rotatable_bond_torsions>  (13) 
1,0,2,7

>  <reason_to_skip>  (13) 
subgraph mismatch

$$$$

     RDKit          3D

  9  9  0  0  0  0  0  0  0  0999 V2000
  -27.9544   -7.5786  -31.0885 C   0  0  0  0  0  0  0  0  0  0  0  0
  -27.6252   -6.6792  -32.0546 N   0  0  0  0  0  0  0  0  0  0  0  0
  -27.6840   -8.8650  -31.2620 N   0  0  0  0  0  0  0  0  0  0  0  0
  -27.7723   -5.3521  -31.8910 C   0  0  0  0  0  0  0  0  0  0  0  0
  -28.2774   -4.8775  -30.6967 C   0  0  0  0  0  0  0  0  0  0  0  0
  -28.6304   -5.7525  -29.6749 C   0  0  0  0  0  0  0  0  0  0  0  0
  -28.4669   -7.1072  -29.8753 C   0  0  0  0  0  0  0  0  0  0  0  0
  -28.0565   -9.4014  -29.9740 C   0  0  0  0  0  0  0  0  0  0  0  0
  -26.9957  -10.2216  -29.2929 C   0  0  0  0  0  0  0  0  0  0  0  0
  1  2  2  0
  1  3  1  0
  2  4  1  0
  4  5  2  0
  5  6  1  0
  6  7  2  0
  1  7  1  0
  3  8  1  0
  8  9  2  0
M  END
>  <name>  (14) 
Car Nac Nd0 Car Car Car Car Car Car

>  <indices>  (14) 
[0, 1, 2]

>  <tasks>  (14) 
probe_placing close_aromatic_ring close_aromatic_ring close_aromatic_ring close_aromatic_ring ring_built build_to_Nd0

>  <prot_clashes>  (14) 
1

>  <NBS phar>  (14) 
0.2

>  <NBS_non-phar>  (14) 
0.8053122758865356

>  <NBS>  (14) 
1.0053122758865356

>  <source_stage>  (14) 
scored

>  <source_iter>  (14) 
5

>  <source_parent_mol>  (14) 
0

>  <source_scenario>  (14) 
1 0 1 0 0

>  <source_rank_in_scored_call>  (14) 
0

>  <source_current_task>  (14) 
build_to_Nd0

>  <scenario>  (14) 
1 0 1 0 0

>  <initiate_ring_110>  (14) 


>  <current_task>  (14) 
close_aromatic_ring

>  <rotatable_bond_torsions>  (14) 
1,0,2,7

>  <reason_to_skip>  (14) 
subgraph mismatch

$$$$

     RDKit          3D

  9  9  0  0  0  0  0  0  0  0999 V2000
  -27.9544   -7.5786  -31.0885 C   0  0  0  0  0  0  0  0  0  0  0  0
  -27.6252   -6.6792  -32.0546 N   0  0  0  0  0  0  0  0  0  0  0  0
  -27.6840   -8.8650  -31.2620 N   0  0  0  0  0  0  0  0  0  0  0  0
  -27.7723   -5.3521  -31.8910 C   0  0  0  0  0  0  0  0  0  0  0  0
  -28.2774   -4.8775  -30.6967 C   0  0  0  0  0  0  0  0  0  0  0  0
  -28.6304   -5.7525  -29.6749 C   0  0  0  0  0  0  0  0  0  0  0  0
  -28.4669   -7.1072  -29.8753 C   0  0  0  0  0  0  0  0  0  0  0  0
  -28.0565   -9.4014  -29.9740 C   0  0  0  0  0  0  0  0  0  0  0  0
  -29.1150  -10.4408  -29.9202 C   0  0  0  0  0  0  0  0  0  0  0  0
  1  2  2  0
  1  3  1  0
  2  4  1  0
  4  5  2  0
  5  6  1  0
  6  7  2  0
  1  7  1  0
  3  8  1  0
  8  9  2  0
M  END
>  <name>  (15) 
Car Nac Nd0 Car Car Car Car Car Car

>  <indices>  (15) 
[0, 1, 2]

>  <tasks>  (15) 
probe_placing close_aromatic_ring close_aromatic_ring close_aromatic_ring close_aromatic_ring ring_built build_to_Nd0

>  <prot_clashes>  (15) 
1

>  <NBS phar>  (15) 
0.2

>  <NBS_non-phar>  (15) 
0.8053122758865356

>  <NBS>  (15) 
1.0053122758865356

>  <source_stage>  (15) 
scored

>  <source_iter>  (15) 
5

>  <source_parent_mol>  (15) 
0

>  <source_scenario>  (15) 
1 0 1 0 0

>  <source_rank_in_scored_call>  (15) 
0

>  <source_current_task>  (15) 
build_to_Nd0

>  <scenario>  (15) 
1 0 1 0 0

>  <initiate_ring_110>  (15) 


>  <current_task>  (15) 
close_aromatic_ring

>  <rotatable_bond_torsions>  (15) 
1,0,2,7

>  <reason_to_skip>  (15) 
subgraph mismatch

$$$$

     RDKit          3D

  9  9  0  0  0  0  0  0  0  0999 V2000
  -27.9544   -7.5786  -31.0885 C   0  0  0  0  0  0  0  0  0  0  0  0
  -27.6252   -6.6792  -32.0546 N   0  0  0  0  0  0  0  0  0  0  0  0
  -27.6840   -8.8650  -31.2620 N   0  0  0  0  0  0  0  0  0  0  0  0
  -27.7723   -5.3521  -31.8910 C   0  0  0  0  0  0  0  0  0  0  0  0
  -28.2774   -4.8775  -30.6967 C   0  0  0  0  0  0  0  0  0  0  0  0
  -28.6304   -5.7525  -29.6749 C   0  0  0  0  0  0  0  0  0  0  0  0
  -28.4669   -7.1072  -29.8753 C   0  0  0  0  0  0  0  0  0  0  0  0
  -28.0565   -9.4014  -29.9740 C   0  0  0  0  0  0  0  0  0  0  0  0
  -28.3614   -8.8971  -28.8708 N   0  0  0  0  0  0  0  0  0  0  0  0
  1  2  2  0
  1  3  1  0
  2  4  1  0
  4  5  2  0
  5  6  1  0
  6  7  2  0
  1  7  1  0
  3  8  1  0
  8  9  1  0
M  END
>  <name>  (16) 
Car Nac Nd0 Car Car Car Car Car Nac

>  <indices>  (16) 
[0, 1, 2]

>  <tasks>  (16) 
probe_placing close_aromatic_ring close_aromatic_ring close_aromatic_ring close_aromatic_ring ring_built build_to_Nd0

>  <prot_clashes>  (16) 
1

>  <NBS phar>  (16) 
0.2

>  <NBS_non-phar>  (16) 
0.8053122758865356

>  <NBS>  (16) 
1.0053122758865356

>  <source_stage>  (16) 
scored

>  <source_iter>  (16) 
5

>  <source_parent_mol>  (16) 
0

>  <source_scenario>  (16) 
1 0 1 0 0

>  <source_rank_in_scored_call>  (16) 
0

>  <source_current_task>  (16) 
build_to_Nd0

>  <scenario>  (16) 
1 0 1 0 0

>  <initiate_ring_110>  (16) 


>  <current_task>  (16) 
close_aromatic_ring

>  <rotatable_bond_torsions>  (16) 
1,0,2,7

>  <reason_to_skip>  (16) 
subgraph mismatch

$$$$

     RDKit          3D

  9  9  0  0  0  0  0  0  0  0999 V2000
  -27.9544   -7.5786  -31.0885 C   0  0  0  0  0  0  0  0  0  0  0  0
  -27.6252   -6.6792  -32.0546 N   0  0  0  0  0  0  0  0  0  0  0  0
  -27.6840   -8.8650  -31.2620 N   0  0  0  0  0  0  0  0  0  0  0  0
  -27.7723   -5.3521  -31.8910 C   0  0  0  0  0  0  0  0  0  0  0  0
  -28.2774   -4.8775  -30.6967 C   0  0  0  0  0  0  0  0  0  0  0  0
  -28.6304   -5.7525  -29.6749 C   0  0  0  0  0  0  0  0  0  0  0  0
  -28.4669   -7.1072  -29.8753 C   0  0  0  0  0  0  0  0  0  0  0  0
  -28.0565   -9.4014  -29.9740 C   0  0  0  0  0  0  0  0  0  0  0  0
  -27.9748  -10.7171  -29.6412 N   0  0  0  0  0  0  0  0  0  0  0  0
  1  2  2  0
  1  3  1  0
  2  4  1  0
  4  5  2  0
  5  6  1  0
  6  7  2  0
  1  7  1  0
  3  8  1  0
  8  9  1  0
M  END
>  <name>  (17) 
Car Nac Nd0 Car Car Car Car Car Nac

>  <indices>  (17) 
[0, 1, 2]

>  <tasks>  (17) 
probe_placing close_aromatic_ring close_aromatic_ring close_aromatic_ring close_aromatic_ring ring_built build_to_Nd0

>  <prot_clashes>  (17) 
1

>  <NBS phar>  (17) 
0.2

>  <NBS_non-phar>  (17) 
0.8053122758865356

>  <NBS>  (17) 
1.0053122758865356

>  <source_stage>  (17) 
scored

>  <source_iter>  (17) 
5

>  <source_parent_mol>  (17) 
0

>  <source_scenario>  (17) 
1 0 1 0 0

>  <source_rank_in_scored_call>  (17) 
0

>  <source_current_task>  (17) 
build_to_Nd0

>  <scenario>  (17) 
1 0 1 0 0

>  <initiate_ring_110>  (17) 


>  <current_task>  (17) 
close_aromatic_ring

>  <rotatable_bond_torsions>  (17) 
1,0,2,7

>  <reason_to_skip>  (17) 
subgraph mismatch

$$$$

     RDKit          3D

  9  9  0  0  0  0  0  0  0  0999 V2000
  -27.9544   -7.5786  -31.0885 C   0  0  0  0  0  0  0  0  0  0  0  0
  -27.6252   -6.6792  -32.0546 N   0  0  0  0  0  0  0  0  0  0  0  0
  -27.6840   -8.8650  -31.2620 N   0  0  0  0  0  0  0  0  0  0  0  0
  -27.7723   -5.3521  -31.8910 C   0  0  0  0  0  0  0  0  0  0  0  0
  -28.2774   -4.8775  -30.6967 C   0  0  0  0  0  0  0  0  0  0  0  0
  -28.6304   -5.7525  -29.6749 C   0  0  0  0  0  0  0  0  0  0  0  0
  -28.4669   -7.1072  -29.8753 C   0  0  0  0  0  0  0  0  0  0  0  0
  -28.0565   -9.4014  -29.9740 C   0  0  0  0  0  0  0  0  0  0  0  0
  -27.0226  -10.0605  -29.3227 N   0  0  0  0  0  0  0  0  0  0  0  0
  1  2  2  0
  1  3  1  0
  2  4  1  0
  4  5  2  0
  5  6  1  0
  6  7  2  0
  1  7  1  0
  3  8  1  0
  8  9  1  0
M  END
>  <name>  (18) 
Car Nac Nd0 Car Car Car Car Car Nac

>  <indices>  (18) 
[0, 1, 2]

>  <tasks>  (18) 
probe_placing close_aromatic_ring close_aromatic_ring close_aromatic_ring close_aromatic_ring ring_built build_to_Nd0

>  <prot_clashes>  (18) 
1

>  <NBS phar>  (18) 
0.2

>  <NBS_non-phar>  (18) 
0.8053122758865356

>  <NBS>  (18) 
1.0053122758865356

>  <source_stage>  (18) 
scored

>  <source_iter>  (18) 
5

>  <source_parent_mol>  (18) 
0

>  <source_scenario>  (18) 
1 0 1 0 0

>  <source_rank_in_scored_call>  (18) 
0

>  <source_current_task>  (18) 
build_to_Nd0

>  <scenario>  (18) 
1 0 1 0 0

>  <initiate_ring_110>  (18) 


>  <current_task>  (18) 
close_aromatic_ring

>  <rotatable_bond_torsions>  (18) 
1,0,2,7

>  <reason_to_skip>  (18) 
subgraph mismatch

$$$$

     RDKit          3D

  9  9  0  0  0  0  0  0  0  0999 V2000
  -27.9544   -7.5786  -31.0885 C   0  0  0  0  0  0  0  0  0  0  0  0
  -27.6252   -6.6792  -32.0546 N   0  0  0  0  0  0  0  0  0  0  0  0
  -27.6840   -8.8650  -31.2620 N   0  0  0  0  0  0  0  0  0  0  0  0
  -27.7723   -5.3521  -31.8910 C   0  0  0  0  0  0  0  0  0  0  0  0
  -28.2774   -4.8775  -30.6967 C   0  0  0  0  0  0  0  0  0  0  0  0
  -28.6304   -5.7525  -29.6749 C   0  0  0  0  0  0  0  0  0  0  0  0
  -28.4669   -7.1072  -29.8753 C   0  0  0  0  0  0  0  0  0  0  0  0
  -28.0565   -9.4014  -29.9740 C   0  0  0  0  0  0  0  0  0  0  0  0
  -28.2383  -10.9486  -30.1789 C   0  0  0  0  0  0  0  0  0  0  0  0
  1  2  2  0
  1  3  1  0
  2  4  1  0
  4  5  2  0
  5  6  1  0
  6  7  2  0
  1  7  1  0
  3  8  1  0
  8  9  1  0
M  END
>  <name>  (19) 
Car Nac Nd0 Car Car Car Car Car Car

>  <indices>  (19) 
[0, 1, 2]

>  <tasks>  (19) 
probe_placing close_aromatic_ring close_aromatic_ring close_aromatic_ring close_aromatic_ring ring_built build_to_Nd0

>  <prot_clashes>  (19) 
1

>  <NBS phar>  (19) 
0.2

>  <NBS_non-phar>  (19) 
0.8053122758865356

>  <NBS>  (19) 
1.0053122758865356

>  <source_stage>  (19) 
scored

>  <source_iter>  (19) 
5

>  <source_parent_mol>  (19) 
0

>  <source_scenario>  (19) 
1 0 1 0 0

>  <source_rank_in_scored_call>  (19) 
0

>  <source_current_task>  (19) 
build_to_Nd0

>  <scenario>  (19) 
1 0 1 0 0

>  <initiate_ring_110>  (19) 


>  <current_task>  (19) 
close_aromatic_ring

>  <rotatable_bond_torsions>  (19) 
1,0,2,7

>  <reason_to_skip>  (19) 
subgraph mismatch

$$$$

     RDKit          3D

  9  9  0  0  0  0  0  0  0  0999 V2000
  -27.9544   -7.5786  -31.0885 C   0  0  0  0  0  0  0  0  0  0  0  0
  -27.6252   -6.6792  -32.0546 N   0  0  0  0  0  0  0  0  0  0  0  0
  -27.6840   -8.8650  -31.2620 N   0  0  0  0  0  0  0  0  0  0  0  0
  -27.7723   -5.3521  -31.8910 C   0  0  0  0  0  0  0  0  0  0  0  0
  -28.2774   -4.8775  -30.6967 C   0  0  0  0  0  0  0  0  0  0  0  0
  -28.6304   -5.7525  -29.6749 C   0  0  0  0  0  0  0  0  0  0  0  0
  -28.4669   -7.1072  -29.8753 C   0  0  0  0  0  0  0  0  0  0  0  0
  -28.0565   -9.4014  -29.9740 C   0  0  0  0  0  0  0  0  0  0  0  0
  -26.9780  -10.0749  -29.2865 C   0  0  0  0  0  0  0  0  0  0  0  0
  1  2  2  0
  1  3  1  0
  2  4  1  0
  4  5  2  0
  5  6  1  0
  6  7  2  0
  1  7  1  0
  3  8  1  0
  8  9  1  0
M  END
>  <name>  (20) 
Car Nac Nd0 Car Car Car Car Car Car

>  <indices>  (20) 
[0, 1, 2]

>  <tasks>  (20) 
probe_placing close_aromatic_ring close_aromatic_ring close_aromatic_ring close_aromatic_ring ring_built build_to_Nd0

>  <prot_clashes>  (20) 
1

>  <NBS phar>  (20) 
0.2

>  <NBS_non-phar>  (20) 
0.8053122758865356

>  <NBS>  (20) 
1.0053122758865356

>  <source_stage>  (20) 
scored

>  <source_iter>  (20) 
5

>  <source_parent_mol>  (20) 
0

>  <source_scenario>  (20) 
1 0 1 0 0

>  <source_rank_in_scored_call>  (20) 
0

>  <source_current_task>  (20) 
build_to_Nd0

>  <scenario>  (20) 
1 0 1 0 0

>  <initiate_ring_110>  (20) 


>  <current_task>  (20) 
close_aromatic_ring

>  <rotatable_bond_torsions>  (20) 
1,0,2,7

>  <reason_to_skip>  (20) 
subgraph mismatch

$$$$

     RDKit          3D

 10 11  0  0  0  0  0  0  0  0999 V2000
  -27.8609   -7.5606  -31.1600 C   0  0  0  0  0  0  0  0  0  0  0  0
  -27.6012   -6.6215  -32.1138 N   0  0  0  0  0  0  0  0  0  0  0  0
  -27.7248   -8.9090  -31.1461 N   0  0  0  0  0  0  0  0  0  0  0  0
  -27.8300   -5.3151  -31.8693 C   0  0  0  0  0  0  0  0  0  0  0  0
  -28.3288   -4.9249  -30.6496 C   0  0  0  0  0  0  0  0  0  0  0  0
  -28.6041   -5.8580  -29.6557 C   0  0  0  0  0  0  0  0  0  0  0  0
  -28.3629   -7.1894  -29.9265 C   0  0  0  0  0  0  0  0  0  0  0  0
  -28.1245   -9.3941  -29.9460 C   0  0  0  0  0  0  0  0  0  0  0  0
  -28.5322   -8.3225  -29.1590 C   0  0  0  0  0  0  0  0  0  0  0  0
  -27.5658   -4.3790  -32.8347 N   0  0  0  0  0  0  0  0  0  0  0  0
  1  2  2  0
  1  3  1  0
  2  4  1  0
  4  5  2  0
  5  6  1  0
  6  7  2  0
  1  7  1  0
  3  8  1  0
  8  9  2  0
  7  9  1  0
  4 10  1  0
M  CHG  1  10   1
M  END
>  <name>  (1) 
Car Nac Nd0 Car Car Car Car Car Car Nd+

>  <indices>  (1) 
[0, 1, 2]

>  <tasks>  (1) 
probe_placing close_aromatic_ring close_aromatic_ring close_aromatic_ring close_aromatic_ring ring_built build_to_Nd0 close_aromatic_ring

>  <prot_clashes>  (1) 
0

>  <NBS phar>  (1) 
0.2

>  <NBS_non-phar>  (1) 
0.7751019795735677

>  <NBS>  (1) 
0.9751019795735678

>  <source_stage>  (1) 
scored

>  <source_iter>  (1) 
6

>  <source_parent_mol>  (1) 
0

>  <source_scenario>  (1) 
1 0 1 0 0 0

>  <source_rank_in_scored_call>  (1) 
0

>  <source_current_task>  (1) 
close_aromatic_ring

>  <scenario>  (1) 
1 0 1 0 0 0

>  <current_task>  (1) 
no_task

>  <reason_to_skip>  (1) 
some_atom_counter_exceeded

$$$$

     RDKit          3D

 10 11  0  0  0  0  0  0  0  0999 V2000
  -27.8609   -7.5606  -31.1600 C   0  0  0  0  0  0  0  0  0  0  0  0
  -27.6012   -6.6215  -32.1138 N   0  0  0  0  0  0  0  0  0  0  0  0
  -27.7248   -8.9090  -31.1461 N   0  0  0  0  0  0  0  0  0  0  0  0
  -27.8300   -5.3151  -31.8693 C   0  0  0  0  0  0  0  0  0  0  0  0
  -28.3288   -4.9249  -30.6496 C   0  0  0  0  0  0  0  0  0  0  0  0
  -28.6041   -5.8580  -29.6557 C   0  0  0  0  0  0  0  0  0  0  0  0
  -28.3629   -7.1894  -29.9265 C   0  0  0  0  0  0  0  0  0  0  0  0
  -28.1245   -9.3941  -29.9460 C   0  0  0  0  0  0  0  0  0  0  0  0
  -28.5322   -8.3225  -29.1590 C   0  0  0  0  0  0  0  0  0  0  0  0
  -27.4994   -4.1439  -33.0772 S   0  0  0  0  0  0  0  0  0  0  0  0
  1  2  2  0
  1  3  1  0
  2  4  1  0
  4  5  2  0
  5  6  1  0
  6  7  2  0
  1  7  1  0
  3  8  1  0
  8  9  2  0
  7  9  1  0
  4 10  1  0
M  END
>  <name>  (2) 
Car Nac Nd0 Car Car Car Car Car Car Sul

>  <indices>  (2) 
[0, 1, 2]

>  <tasks>  (2) 
probe_placing close_aromatic_ring close_aromatic_ring close_aromatic_ring close_aromatic_ring ring_built build_to_Nd0 close_aromatic_ring

>  <prot_clashes>  (2) 
0

>  <NBS phar>  (2) 
0.2

>  <NBS_non-phar>  (2) 
0.7751019795735677

>  <NBS>  (2) 
0.9751019795735678

>  <source_stage>  (2) 
scored

>  <source_iter>  (2) 
6

>  <source_parent_mol>  (2) 
0

>  <source_scenario>  (2) 
1 0 1 0 0 0

>  <source_rank_in_scored_call>  (2) 
0

>  <source_current_task>  (2) 
close_aromatic_ring

>  <scenario>  (2) 
1 0 1 0 0 0

>  <current_task>  (2) 
no_task

>  <reason_to_skip>  (2) 
some_atom_counter_exceeded

$$$$

     RDKit          3D

 10 11  0  0  0  0  0  0  0  0999 V2000
  -27.8609   -7.5606  -31.1600 C   0  0  0  0  0  0  0  0  0  0  0  0
  -27.6012   -6.6215  -32.1138 N   0  0  0  0  0  0  0  0  0  0  0  0
  -27.7248   -8.9090  -31.1461 N   0  0  0  0  0  0  0  0  0  0  0  0
  -27.8300   -5.3151  -31.8693 C   0  0  0  0  0  0  0  0  0  0  0  0
  -28.3288   -4.9249  -30.6496 C   0  0  0  0  0  0  0  0  0  0  0  0
  -28.6041   -5.8580  -29.6557 C   0  0  0  0  0  0  0  0  0  0  0  0
  -28.3629   -7.1894  -29.9265 C   0  0  0  0  0  0  0  0  0  0  0  0
  -28.1245   -9.3941  -29.9460 C   0  0  0  0  0  0  0  0  0  0  0  0
  -28.5322   -8.3225  -29.1590 C   0  0  0  0  0  0  0  0  0  0  0  0
  -27.6047   -3.9311  -32.8561 S   0  0  0  0  0  0  0  0  0  0  0  0
  1  2  2  0
  1  3  1  0
  2  4  1  0
  4  5  2  0
  5  6  1  0
  6  7  2  0
  1  7  1  0
  3  8  1  0
  8  9  2  0
  7  9  1  0
  4 10  1  0
M  END
>  <name>  (3) 
Car Nac Nd0 Car Car Car Car Car Car Sul

>  <indices>  (3) 
[0, 1, 2]

>  <tasks>  (3) 
probe_placing close_aromatic_ring close_aromatic_ring close_aromatic_ring close_aromatic_ring ring_built build_to_Nd0 close_aromatic_ring

>  <prot_clashes>  (3) 
0

>  <NBS phar>  (3) 
0.2

>  <NBS_non-phar>  (3) 
0.7751019795735677

>  <NBS>  (3) 
0.9751019795735678

>  <source_stage>  (3) 
scored

>  <source_iter>  (3) 
6

>  <source_parent_mol>  (3) 
0

>  <source_scenario>  (3) 
1 0 1 0 0 0

>  <source_rank_in_scored_call>  (3) 
0

>  <source_current_task>  (3) 
close_aromatic_ring

>  <scenario>  (3) 
1 0 1 0 0 0

>  <current_task>  (3) 
no_task

>  <reason_to_skip>  (3) 
some_atom_counter_exceeded

$$$$

     RDKit          3D

 10 11  0  0  0  0  0  0  0  0999 V2000
  -27.8609   -7.5606  -31.1600 C   0  0  0  0  0  0  0  0  0  0  0  0
  -27.6012   -6.6215  -32.1138 N   0  0  0  0  0  0  0  0  0  0  0  0
  -27.7248   -8.9090  -31.1461 N   0  0  0  0  0  0  0  0  0  0  0  0
  -27.8300   -5.3151  -31.8693 C   0  0  0  0  0  0  0  0  0  0  0  0
  -28.3288   -4.9249  -30.6496 C   0  0  0  0  0  0  0  0  0  0  0  0
  -28.6041   -5.8580  -29.6557 C   0  0  0  0  0  0  0  0  0  0  0  0
  -28.3629   -7.1894  -29.9265 C   0  0  0  0  0  0  0  0  0  0  0  0
  -28.1245   -9.3941  -29.9460 C   0  0  0  0  0  0  0  0  0  0  0  0
  -28.5322   -8.3225  -29.1590 C   0  0  0  0  0  0  0  0  0  0  0  0
  -27.4059   -4.3986  -33.2551 S   0  0  0  0  0  0  0  0  0  0  0  0
  1  2  2  0
  1  3  1  0
  2  4  1  0
  4  5  2  0
  5  6  1  0
  6  7  2  0
  1  7  1  0
  3  8  1  0
  8  9  2  0
  7  9  1  0
  4 10  1  0
M  END
>  <name>  (4) 
Car Nac Nd0 Car Car Car Car Car Car Sul

>  <indices>  (4) 
[0, 1, 2]

>  <tasks>  (4) 
probe_placing close_aromatic_ring close_aromatic_ring close_aromatic_ring close_aromatic_ring ring_built build_to_Nd0 close_aromatic_ring

>  <prot_clashes>  (4) 
0

>  <NBS phar>  (4) 
0.2

>  <NBS_non-phar>  (4) 
0.7751019795735677

>  <NBS>  (4) 
0.9751019795735678

>  <source_stage>  (4) 
scored

>  <source_iter>  (4) 
6

>  <source_parent_mol>  (4) 
0

>  <source_scenario>  (4) 
1 0 1 0 0 0

>  <source_rank_in_scored_call>  (4) 
0

>  <source_current_task>  (4) 
close_aromatic_ring

>  <scenario>  (4) 
1 0 1 0 0 0

>  <current_task>  (4) 
no_task

>  <reason_to_skip>  (4) 
some_atom_counter_exceeded

$$$$

     RDKit          3D

 10 11  0  0  0  0  0  0  0  0999 V2000
  -27.8609   -7.5606  -31.1600 C   0  0  0  0  0  0  0  0  0  0  0  0
  -27.6012   -6.6215  -32.1138 N   0  0  0  0  0  0  0  0  0  0  0  0
  -27.7248   -8.9090  -31.1461 N   0  0  0  0  0  0  0  0  0  0  0  0
  -27.8300   -5.3151  -31.8693 C   0  0  0  0  0  0  0  0  0  0  0  0
  -28.3288   -4.9249  -30.6496 C   0  0  0  0  0  0  0  0  0  0  0  0
  -28.6041   -5.8580  -29.6557 C   0  0  0  0  0  0  0  0  0  0  0  0
  -28.3629   -7.1894  -29.9265 C   0  0  0  0  0  0  0  0  0  0  0  0
  -28.1245   -9.3941  -29.9460 C   0  0  0  0  0  0  0  0  0  0  0  0
  -28.5322   -8.3225  -29.1590 C   0  0  0  0  0  0  0  0  0  0  0  0
  -27.5550   -4.3411  -32.8739 C   0  0  0  0  0  0  0  0  0  0  0  0
  1  2  2  0
  1  3  1  0
  2  4  1  0
  4  5  2  0
  5  6  1  0
  6  7  2  0
  1  7  1  0
  3  8  1  0
  8  9  2  0
  7  9  1  0
  4 10  1  0
M  END
>  <name>  (5) 
Car Nac Nd0 Car Car Car Car Car Car Csp

>  <indices>  (5) 
[0, 1, 2]

>  <tasks>  (5) 
probe_placing close_aromatic_ring close_aromatic_ring close_aromatic_ring close_aromatic_ring ring_built build_to_Nd0 close_aromatic_ring

>  <prot_clashes>  (5) 
0

>  <NBS phar>  (5) 
0.2

>  <NBS_non-phar>  (5) 
0.7751019795735677

>  <NBS>  (5) 
0.9751019795735678

>  <source_stage>  (5) 
scored

>  <source_iter>  (5) 
6

>  <source_parent_mol>  (5) 
0

>  <source_scenario>  (5) 
1 0 1 0 0 0

>  <source_rank_in_scored_call>  (5) 
0

>  <source_current_task>  (5) 
close_aromatic_ring

>  <scenario>  (5) 
1 0 1 0 0 0

>  <current_task>  (5) 
no_task

>  <reason_to_skip>  (5) 
some_atom_counter_exceeded

$$$$

     RDKit          3D

 10 11  0  0  0  0  0  0  0  0999 V2000
  -27.8609   -7.5606  -31.1600 C   0  0  0  0  0  0  0  0  0  0  0  0
  -27.6012   -6.6215  -32.1138 N   0  0  0  0  0  0  0  0  0  0  0  0
  -27.7248   -8.9090  -31.1461 N   0  0  0  0  0  0  0  0  0  0  0  0
  -27.8300   -5.3151  -31.8693 C   0  0  0  0  0  0  0  0  0  0  0  0
  -28.3288   -4.9249  -30.6496 C   0  0  0  0  0  0  0  0  0  0  0  0
  -28.6041   -5.8580  -29.6557 C   0  0  0  0  0  0  0  0  0  0  0  0
  -28.3629   -7.1894  -29.9265 C   0  0  0  0  0  0  0  0  0  0  0  0
  -28.1245   -9.3941  -29.9460 C   0  0  0  0  0  0  0  0  0  0  0  0
  -28.5322   -8.3225  -29.1590 C   0  0  0  0  0  0  0  0  0  0  0  0
  -27.4930   -4.1214  -33.1004 S   0  0  0  0  0  0  0  0  0  0  0  0
  1  2  2  0
  1  3  1  0
  2  4  1  0
  4  5  2  0
  5  6  1  0
  6  7  2  0
  1  7  1  0
  3  8  1  0
  8  9  2  0
  7  9  1  0
  4 10  1  0
M  END
>  <name>  (6) 
Car Nac Nd0 Car Car Car Car Car Car SO2

>  <indices>  (6) 
[0, 1, 2]

>  <tasks>  (6) 
probe_placing close_aromatic_ring close_aromatic_ring close_aromatic_ring close_aromatic_ring ring_built build_to_Nd0 close_aromatic_ring

>  <prot_clashes>  (6) 
0

>  <NBS phar>  (6) 
0.2

>  <NBS_non-phar>  (6) 
0.7751019795735677

>  <NBS>  (6) 
0.9751019795735678

>  <source_stage>  (6) 
scored

>  <source_iter>  (6) 
6

>  <source_parent_mol>  (6) 
0

>  <source_scenario>  (6) 
1 0 1 0 0 0

>  <source_rank_in_scored_call>  (6) 
0

>  <source_current_task>  (6) 
close_aromatic_ring

>  <scenario>  (6) 
1 0 1 0 0 0

>  <current_task>  (6) 
no_task

>  <reason_to_skip>  (6) 
some_atom_counter_exceeded

$$$$

     RDKit          3D

 10 11  0  0  0  0  0  0  0  0999 V2000
  -27.8609   -7.5606  -31.1600 C   0  0  0  0  0  0  0  0  0  0  0  0
  -27.6012   -6.6215  -32.1138 N   0  0  0  0  0  0  0  0  0  0  0  0
  -27.7248   -8.9090  -31.1461 N   0  0  0  0  0  0  0  0  0  0  0  0
  -27.8300   -5.3151  -31.8693 C   0  0  0  0  0  0  0  0  0  0  0  0
  -28.3288   -4.9249  -30.6496 C   0  0  0  0  0  0  0  0  0  0  0  0
  -28.6041   -5.8580  -29.6557 C   0  0  0  0  0  0  0  0  0  0  0  0
  -28.3629   -7.1894  -29.9265 C   0  0  0  0  0  0  0  0  0  0  0  0
  -28.1245   -9.3941  -29.9460 C   0  0  0  0  0  0  0  0  0  0  0  0
  -28.5322   -8.3225  -29.1590 C   0  0  0  0  0  0  0  0  0  0  0  0
  -27.5644   -4.3742  -32.8397 O   0  0  0  0  0  0  0  0  0  0  0  0
  1  2  2  0
  1  3  1  0
  2  4  1  0
  4  5  2  0
  5  6  1  0
  6  7  2  0
  1  7  1  0
  3  8  1  0
  8  9  2  0
  7  9  1  0
  4 10  1  0
M  END
>  <name>  (7) 
Car Nac Nd0 Car Car Car Car Car Car O_a

>  <indices>  (7) 
[0, 1, 2]

>  <tasks>  (7) 
probe_placing close_aromatic_ring close_aromatic_ring close_aromatic_ring close_aromatic_ring ring_built build_to_Nd0 close_aromatic_ring

>  <prot_clashes>  (7) 
0

>  <NBS phar>  (7) 
0.2

>  <NBS_non-phar>  (7) 
0.7751019795735677

>  <NBS>  (7) 
0.9751019795735678

>  <source_stage>  (7) 
scored

>  <source_iter>  (7) 
6

>  <source_parent_mol>  (7) 
0

>  <source_scenario>  (7) 
1 0 1 0 0 0

>  <source_rank_in_scored_call>  (7) 
0

>  <source_current_task>  (7) 
close_aromatic_ring

>  <scenario>  (7) 
1 0 1 0 0 0

>  <current_task>  (7) 
no_task

>  <reason_to_skip>  (7) 
some_atom_counter_exceeded

$$$$

     RDKit          3D

 10 11  0  0  0  0  0  0  0  0999 V2000
  -27.8609   -7.5606  -31.1600 C   0  0  0  0  0  0  0  0  0  0  0  0
  -27.6012   -6.6215  -32.1138 N   0  0  0  0  0  0  0  0  0  0  0  0
  -27.7248   -8.9090  -31.1461 N   0  0  0  0  0  0  0  0  0  0  0  0
  -27.8300   -5.3151  -31.8693 C   0  0  0  0  0  0  0  0  0  0  0  0
  -28.3288   -4.9249  -30.6496 C   0  0  0  0  0  0  0  0  0  0  0  0
  -28.6041   -5.8580  -29.6557 C   0  0  0  0  0  0  0  0  0  0  0  0
  -28.3629   -7.1894  -29.9265 C   0  0  0  0  0  0  0  0  0  0  0  0
  -28.1245   -9.3941  -29.9460 C   0  0  0  0  0  0  0  0  0  0  0  0
  -28.5322   -8.3225  -29.1590 C   0  0  0  0  0  0  0  0  0  0  0  0
  -27.6490   -4.2032  -32.6621 O   0  0  0  0  0  0  0  0  0  0  0  0
  1  2  2  0
  1  3  1  0
  2  4  1  0
  4  5  2  0
  5  6  1  0
  6  7  2  0
  1  7  1  0
  3  8  1  0
  8  9  2  0
  7  9  1  0
  4 10  1  0
M  END
>  <name>  (8) 
Car Nac Nd0 Car Car Car Car Car Car O_a

>  <indices>  (8) 
[0, 1, 2]

>  <tasks>  (8) 
probe_placing close_aromatic_ring close_aromatic_ring close_aromatic_ring close_aromatic_ring ring_built build_to_Nd0 close_aromatic_ring

>  <prot_clashes>  (8) 
0

>  <NBS phar>  (8) 
0.2

>  <NBS_non-phar>  (8) 
0.7751019795735677

>  <NBS>  (8) 
0.9751019795735678

>  <source_stage>  (8) 
scored

>  <source_iter>  (8) 
6

>  <source_parent_mol>  (8) 
0

>  <source_scenario>  (8) 
1 0 1 0 0 0

>  <source_rank_in_scored_call>  (8) 
0

>  <source_current_task>  (8) 
close_aromatic_ring

>  <scenario>  (8) 
1 0 1 0 0 0

>  <current_task>  (8) 
no_task

>  <reason_to_skip>  (8) 
some_atom_counter_exceeded

$$$$

     RDKit          3D

 10 11  0  0  0  0  0  0  0  0999 V2000
  -27.8609   -7.5606  -31.1600 C   0  0  0  0  0  0  0  0  0  0  0  0
  -27.6012   -6.6215  -32.1138 N   0  0  0  0  0  0  0  0  0  0  0  0
  -27.7248   -8.9090  -31.1461 N   0  0  0  0  0  0  0  0  0  0  0  0
  -27.8300   -5.3151  -31.8693 C   0  0  0  0  0  0  0  0  0  0  0  0
  -28.3288   -4.9249  -30.6496 C   0  0  0  0  0  0  0  0  0  0  0  0
  -28.6041   -5.8580  -29.6557 C   0  0  0  0  0  0  0  0  0  0  0  0
  -28.3629   -7.1894  -29.9265 C   0  0  0  0  0  0  0  0  0  0  0  0
  -28.1245   -9.3941  -29.9460 C   0  0  0  0  0  0  0  0  0  0  0  0
  -28.5322   -8.3225  -29.1590 C   0  0  0  0  0  0  0  0  0  0  0  0
  -27.4893   -4.5788  -32.9826 O   0  0  0  0  0  0  0  0  0  0  0  0
  1  2  2  0
  1  3  1  0
  2  4  1  0
  4  5  2  0
  5  6  1  0
  6  7  2  0
  1  7  1  0
  3  8  1  0
  8  9  2  0
  7  9  1  0
  4 10  1  0
M  END
>  <name>  (9) 
Car Nac Nd0 Car Car Car Car Car Car O_a

>  <indices>  (9) 
[0, 1, 2]

>  <tasks>  (9) 
probe_placing close_aromatic_ring close_aromatic_ring close_aromatic_ring close_aromatic_ring ring_built build_to_Nd0 close_aromatic_ring

>  <prot_clashes>  (9) 
0

>  <NBS phar>  (9) 
0.2

>  <NBS_non-phar>  (9) 
0.7751019795735677

>  <NBS>  (9) 
0.9751019795735678

>  <source_stage>  (9) 
scored

>  <source_iter>  (9) 
6

>  <source_parent_mol>  (9) 
0

>  <source_scenario>  (9) 
1 0 1 0 0 0

>  <source_rank_in_scored_call>  (9) 
0

>  <source_current_task>  (9) 
close_aromatic_ring

>  <scenario>  (9) 
1 0 1 0 0 0

>  <current_task>  (9) 
no_task

>  <reason_to_skip>  (9) 
some_atom_counter_exceeded

$$$$

     RDKit          3D

 10 11  0  0  0  0  0  0  0  0999 V2000
  -27.8609   -7.5606  -31.1600 C   0  0  0  0  0  0  0  0  0  0  0  0
  -27.6012   -6.6215  -32.1138 N   0  0  0  0  0  0  0  0  0  0  0  0
  -27.7248   -8.9090  -31.1461 N   0  0  0  0  0  0  0  0  0  0  0  0
  -27.8300   -5.3151  -31.8693 C   0  0  0  0  0  0  0  0  0  0  0  0
  -28.3288   -4.9249  -30.6496 C   0  0  0  0  0  0  0  0  0  0  0  0
  -28.6041   -5.8580  -29.6557 C   0  0  0  0  0  0  0  0  0  0  0  0
  -28.3629   -7.1894  -29.9265 C   0  0  0  0  0  0  0  0  0  0  0  0
  -28.1245   -9.3941  -29.9460 C   0  0  0  0  0  0  0  0  0  0  0  0
  -28.5322   -8.3225  -29.1590 C   0  0  0  0  0  0  0  0  0  0  0  0
  -27.5391   -4.2846  -32.9321 C   0  0  0  0  0  0  0  0  0  0  0  0
  1  2  2  0
  1  3  1  0
  2  4  1  0
  4  5  2  0
  5  6  1  0
  6  7  2  0
  1  7  1  0
  3  8  1  0
  8  9  2  0
  7  9  1  0
  4 10  1  0
M  END
>  <name>  (10) 
Car Nac Nd0 Car Car Car Car Car Car Cs3

>  <indices>  (10) 
[0, 1, 2]

>  <tasks>  (10) 
probe_placing close_aromatic_ring close_aromatic_ring close_aromatic_ring close_aromatic_ring ring_built build_to_Nd0 close_aromatic_ring

>  <prot_clashes>  (10) 
0

>  <NBS phar>  (10) 
0.2

>  <NBS_non-phar>  (10) 
0.7751019795735677

>  <NBS>  (10) 
0.9751019795735678

>  <source_stage>  (10) 
scored

>  <source_iter>  (10) 
6

>  <source_parent_mol>  (10) 
0

>  <source_scenario>  (10) 
1 0 1 0 0 0

>  <source_rank_in_scored_call>  (10) 
0

>  <source_current_task>  (10) 
close_aromatic_ring

>  <scenario>  (10) 
1 0 1 0 0 0

>  <current_task>  (10) 
no_task

>  <reason_to_skip>  (10) 
some_atom_counter_exceeded

$$$$

     RDKit          3D

 10 11  0  0  0  0  0  0  0  0999 V2000
  -27.8609   -7.5606  -31.1600 C   0  0  0  0  0  0  0  0  0  0  0  0
  -27.6012   -6.6215  -32.1138 N   0  0  0  0  0  0  0  0  0  0  0  0
  -27.7248   -8.9090  -31.1461 N   0  0  0  0  0  0  0  0  0  0  0  0
  -27.8300   -5.3151  -31.8693 C   0  0  0  0  0  0  0  0  0  0  0  0
  -28.3288   -4.9249  -30.6496 C   0  0  0  0  0  0  0  0  0  0  0  0
  -28.6041   -5.8580  -29.6557 C   0  0  0  0  0  0  0  0  0  0  0  0
  -28.3629   -7.1894  -29.9265 C   0  0  0  0  0  0  0  0  0  0  0  0
  -28.1245   -9.3941  -29.9460 C   0  0  0  0  0  0  0  0  0  0  0  0
  -28.5322   -8.3225  -29.1590 C   0  0  0  0  0  0  0  0  0  0  0  0
  -27.5397   -4.2865  -32.9301 C   0  0  0  0  0  0  0  0  0  0  0  0
  1  2  2  0
  1  3  1  0
  2  4  1  0
  4  5  2  0
  5  6  1  0
  6  7  2  0
  1  7  1  0
  3  8  1  0
  8  9  2  0
  7  9  1  0
  4 10  1  0
M  END
>  <name>  (11) 
Car Nac Nd0 Car Car Car Car Car Car C3r

>  <indices>  (11) 
[0, 1, 2]

>  <tasks>  (11) 
probe_placing close_aromatic_ring close_aromatic_ring close_aromatic_ring close_aromatic_ring ring_built build_to_Nd0 close_aromatic_ring

>  <prot_clashes>  (11) 
0

>  <NBS phar>  (11) 
0.2

>  <NBS_non-phar>  (11) 
0.7751019795735677

>  <NBS>  (11) 
0.9751019795735678

>  <source_stage>  (11) 
scored

>  <source_iter>  (11) 
6

>  <source_parent_mol>  (11) 
0

>  <source_scenario>  (11) 
1 0 1 0 0 0

>  <source_rank_in_scored_call>  (11) 
0

>  <source_current_task>  (11) 
close_aromatic_ring

>  <scenario>  (11) 
1 0 1 0 0 0

>  <current_task>  (11) 
no_task

>  <reason_to_skip>  (11) 
some_atom_counter_exceeded

$$$$

     RDKit          3D

 10 11  0  0  0  0  0  0  0  0999 V2000
  -27.8609   -7.5606  -31.1600 C   0  0  0  0  0  0  0  0  0  0  0  0
  -27.6012   -6.6215  -32.1138 N   0  0  0  0  0  0  0  0  0  0  0  0
  -27.7248   -8.9090  -31.1461 N   0  0  0  0  0  0  0  0  0  0  0  0
  -27.8300   -5.3151  -31.8693 C   0  0  0  0  0  0  0  0  0  0  0  0
  -28.3288   -4.9249  -30.6496 C   0  0  0  0  0  0  0  0  0  0  0  0
  -28.6041   -5.8580  -29.6557 C   0  0  0  0  0  0  0  0  0  0  0  0
  -28.3629   -7.1894  -29.9265 C   0  0  0  0  0  0  0  0  0  0  0  0
  -28.1245   -9.3941  -29.9460 C   0  0  0  0  0  0  0  0  0  0  0  0
  -28.5322   -8.3225  -29.1590 C   0  0  0  0  0  0  0  0  0  0  0  0
  -27.6322   -4.0996  -32.7359 C   0  0  0  0  0  0  0  0  0  0  0  0
  1  2  2  0
  1  3  1  0
  2  4  1  0
  4  5  2  0
  5  6  1  0
  6  7  2  0
  1  7  1  0
  3  8  1  0
  8  9  2  0
  7  9  1  0
  4 10  1  0
M  END
>  <name>  (12) 
Car Nac Nd0 Car Car Car Car Car Car C3r

>  <indices>  (12) 
[0, 1, 2]

>  <tasks>  (12) 
probe_placing close_aromatic_ring close_aromatic_ring close_aromatic_ring close_aromatic_ring ring_built build_to_Nd0 close_aromatic_ring

>  <prot_clashes>  (12) 
0

>  <NBS phar>  (12) 
0.2

>  <NBS_non-phar>  (12) 
0.7751019795735677

>  <NBS>  (12) 
0.9751019795735678

>  <source_stage>  (12) 
scored

>  <source_iter>  (12) 
6

>  <source_parent_mol>  (12) 
0

>  <source_scenario>  (12) 
1 0 1 0 0 0

>  <source_rank_in_scored_call>  (12) 
0

>  <source_current_task>  (12) 
close_aromatic_ring

>  <scenario>  (12) 
1 0 1 0 0 0

>  <current_task>  (12) 
no_task

>  <reason_to_skip>  (12) 
some_atom_counter_exceeded

$$$$

     RDKit          3D

 10 11  0  0  0  0  0  0  0  0999 V2000
  -27.8609   -7.5606  -31.1600 C   0  0  0  0  0  0  0  0  0  0  0  0
  -27.6012   -6.6215  -32.1138 N   0  0  0  0  0  0  0  0  0  0  0  0
  -27.7248   -8.9090  -31.1461 N   0  0  0  0  0  0  0  0  0  0  0  0
  -27.8300   -5.3151  -31.8693 C   0  0  0  0  0  0  0  0  0  0  0  0
  -28.3288   -4.9249  -30.6496 C   0  0  0  0  0  0  0  0  0  0  0  0
  -28.6041   -5.8580  -29.6557 C   0  0  0  0  0  0  0  0  0  0  0  0
  -28.3629   -7.1894  -29.9265 C   0  0  0  0  0  0  0  0  0  0  0  0
  -28.1245   -9.3941  -29.9460 C   0  0  0  0  0  0  0  0  0  0  0  0
  -28.5322   -8.3225  -29.1590 C   0  0  0  0  0  0  0  0  0  0  0  0
  -27.4576   -4.5103  -33.0863 C   0  0  0  0  0  0  0  0  0  0  0  0
  1  2  2  0
  1  3  1  0
  2  4  1  0
  4  5  2  0
  5  6  1  0
  6  7  2  0
  1  7  1  0
  3  8  1  0
  8  9  2  0
  7  9  1  0
  4 10  1  0
M  END
>  <name>  (13) 
Car Nac Nd0 Car Car Car Car Car Car C3r

>  <indices>  (13) 
[0, 1, 2]

>  <tasks>  (13) 
probe_placing close_aromatic_ring close_aromatic_ring close_aromatic_ring close_aromatic_ring ring_built build_to_Nd0 close_aromatic_ring

>  <prot_clashes>  (13) 
0

>  <NBS phar>  (13) 
0.2

>  <NBS_non-phar>  (13) 
0.7751019795735677

>  <NBS>  (13) 
0.9751019795735678

>  <source_stage>  (13) 
scored

>  <source_iter>  (13) 
6

>  <source_parent_mol>  (13) 
0

>  <source_scenario>  (13) 
1 0 1 0 0 0

>  <source_rank_in_scored_call>  (13) 
0

>  <source_current_task>  (13) 
close_aromatic_ring

>  <scenario>  (13) 
1 0 1 0 0 0

>  <current_task>  (13) 
no_task

>  <reason_to_skip>  (13) 
some_atom_counter_exceeded

$$$$

     RDKit          3D

 10 11  0  0  0  0  0  0  0  0999 V2000
  -27.8609   -7.5606  -31.1600 C   0  0  0  0  0  0  0  0  0  0  0  0
  -27.6012   -6.6215  -32.1138 N   0  0  0  0  0  0  0  0  0  0  0  0
  -27.7248   -8.9090  -31.1461 N   0  0  0  0  0  0  0  0  0  0  0  0
  -27.8300   -5.3151  -31.8693 C   0  0  0  0  0  0  0  0  0  0  0  0
  -28.3288   -4.9249  -30.6496 C   0  0  0  0  0  0  0  0  0  0  0  0
  -28.6041   -5.8580  -29.6557 C   0  0  0  0  0  0  0  0  0  0  0  0
  -28.3629   -7.1894  -29.9265 C   0  0  0  0  0  0  0  0  0  0  0  0
  -28.1245   -9.3941  -29.9460 C   0  0  0  0  0  0  0  0  0  0  0  0
  -28.5322   -8.3225  -29.1590 C   0  0  0  0  0  0  0  0  0  0  0  0
  -27.5671   -4.3838  -32.8297 O   0  0  0  0  0  0  0  0  0  0  0  0
  1  2  2  0
  1  3  1  0
  2  4  1  0
  4  5  2  0
  5  6  1  0
  6  7  2  0
  1  7  1  0
  3  8  1  0
  8  9  2  0
  7  9  1  0
  4 10  1  0
M  END
>  <name>  (14) 
Car Nac Nd0 Car Car Car Car Car Car O_d

>  <indices>  (14) 
[0, 1, 2]

>  <tasks>  (14) 
probe_placing close_aromatic_ring close_aromatic_ring close_aromatic_ring close_aromatic_ring ring_built build_to_Nd0 close_aromatic_ring

>  <prot_clashes>  (14) 
0

>  <NBS phar>  (14) 
0.2

>  <NBS_non-phar>  (14) 
0.7751019795735677

>  <NBS>  (14) 
0.9751019795735678

>  <source_stage>  (14) 
scored

>  <source_iter>  (14) 
6

>  <source_parent_mol>  (14) 
0

>  <source_scenario>  (14) 
1 0 1 0 0 0

>  <source_rank_in_scored_call>  (14) 
0

>  <source_current_task>  (14) 
close_aromatic_ring

>  <scenario>  (14) 
1 0 1 0 0 0

>  <current_task>  (14) 
no_task

>  <reason_to_skip>  (14) 
some_atom_counter_exceeded

$$$$

     RDKit          3D

 10 11  0  0  0  0  0  0  0  0999 V2000
  -27.8609   -7.5606  -31.1600 C   0  0  0  0  0  0  0  0  0  0  0  0
  -27.6012   -6.6215  -32.1138 N   0  0  0  0  0  0  0  0  0  0  0  0
  -27.7248   -8.9090  -31.1461 N   0  0  0  0  0  0  0  0  0  0  0  0
  -27.8300   -5.3151  -31.8693 C   0  0  0  0  0  0  0  0  0  0  0  0
  -28.3288   -4.9249  -30.6496 C   0  0  0  0  0  0  0  0  0  0  0  0
  -28.6041   -5.8580  -29.6557 C   0  0  0  0  0  0  0  0  0  0  0  0
  -28.3629   -7.1894  -29.9265 C   0  0  0  0  0  0  0  0  0  0  0  0
  -28.1245   -9.3941  -29.9460 C   0  0  0  0  0  0  0  0  0  0  0  0
  -28.5322   -8.3225  -29.1590 C   0  0  0  0  0  0  0  0  0  0  0  0
  -27.4849   -4.0926  -33.1301 Cl  0  0  0  0  0  0  0  0  0  0  0  0
  1  2  2  0
  1  3  1  0
  2  4  1  0
  4  5  2  0
  5  6  1  0
  6  7  2  0
  1  7  1  0
  3  8  1  0
  8  9  2  0
  7  9  1  0
  4 10  1  0
M  END
>  <name>  (15) 
Car Nac Nd0 Car Car Car Car Car Car Hal

>  <indices>  (15) 
[0, 1, 2]

>  <tasks>  (15) 
probe_placing close_aromatic_ring close_aromatic_ring close_aromatic_ring close_aromatic_ring ring_built build_to_Nd0 close_aromatic_ring

>  <prot_clashes>  (15) 
0

>  <NBS phar>  (15) 
0.2

>  <NBS_non-phar>  (15) 
0.7751019795735677

>  <NBS>  (15) 
0.9751019795735678

>  <source_stage>  (15) 
scored

>  <source_iter>  (15) 
6

>  <source_parent_mol>  (15) 
0

>  <source_scenario>  (15) 
1 0 1 0 0 0

>  <source_rank_in_scored_call>  (15) 
0

>  <source_current_task>  (15) 
close_aromatic_ring

>  <scenario>  (15) 
1 0 1 0 0 0

>  <current_task>  (15) 
no_task

>  <reason_to_skip>  (15) 
some_atom_counter_exceeded

$$$$

     RDKit          3D

 10 11  0  0  0  0  0  0  0  0999 V2000
  -27.8609   -7.5606  -31.1600 C   0  0  0  0  0  0  0  0  0  0  0  0
  -27.6012   -6.6215  -32.1138 N   0  0  0  0  0  0  0  0  0  0  0  0
  -27.7248   -8.9090  -31.1461 N   0  0  0  0  0  0  0  0  0  0  0  0
  -27.8300   -5.3151  -31.8693 C   0  0  0  0  0  0  0  0  0  0  0  0
  -28.3288   -4.9249  -30.6496 C   0  0  0  0  0  0  0  0  0  0  0  0
  -28.6041   -5.8580  -29.6557 C   0  0  0  0  0  0  0  0  0  0  0  0
  -28.3629   -7.1894  -29.9265 C   0  0  0  0  0  0  0  0  0  0  0  0
  -28.1245   -9.3941  -29.9460 C   0  0  0  0  0  0  0  0  0  0  0  0
  -28.5322   -8.3225  -29.1590 C   0  0  0  0  0  0  0  0  0  0  0  0
  -28.5585   -3.5955  -30.4089 N   0  0  0  0  0  0  0  0  0  0  0  0
  1  2  2  0
  1  3  1  0
  2  4  1  0
  4  5  2  0
  5  6  1  0
  6  7  2  0
  1  7  1  0
  3  8  1  0
  8  9  2  0
  7  9  1  0
  5 10  1  0
M  CHG  1  10   1
M  END
>  <name>  (16) 
Car Nac Nd0 Car Car Car Car Car Car Nd+

>  <indices>  (16) 
[0, 1, 2]

>  <tasks>  (16) 
probe_placing close_aromatic_ring close_aromatic_ring close_aromatic_ring close_aromatic_ring ring_built build_to_Nd0 close_aromatic_ring

>  <prot_clashes>  (16) 
0

>  <NBS phar>  (16) 
0.2

>  <NBS_non-phar>  (16) 
0.7751019795735677

>  <NBS>  (16) 
0.9751019795735678

>  <source_stage>  (16) 
scored

>  <source_iter>  (16) 
6

>  <source_parent_mol>  (16) 
0

>  <source_scenario>  (16) 
1 0 1 0 0 0

>  <source_rank_in_scored_call>  (16) 
0

>  <source_current_task>  (16) 
close_aromatic_ring

>  <scenario>  (16) 
1 0 1 0 0 0

>  <current_task>  (16) 
no_task

>  <reason_to_skip>  (16) 
some_atom_counter_exceeded

$$$$

     RDKit          3D

 10 11  0  0  0  0  0  0  0  0999 V2000
  -27.8609   -7.5606  -31.1600 C   0  0  0  0  0  0  0  0  0  0  0  0
  -27.6012   -6.6215  -32.1138 N   0  0  0  0  0  0  0  0  0  0  0  0
  -27.7248   -8.9090  -31.1461 N   0  0  0  0  0  0  0  0  0  0  0  0
  -27.8300   -5.3151  -31.8693 C   0  0  0  0  0  0  0  0  0  0  0  0
  -28.3288   -4.9249  -30.6496 C   0  0  0  0  0  0  0  0  0  0  0  0
  -28.6041   -5.8580  -29.6557 C   0  0  0  0  0  0  0  0  0  0  0  0
  -28.3629   -7.1894  -29.9265 C   0  0  0  0  0  0  0  0  0  0  0  0
  -28.1245   -9.3941  -29.9460 C   0  0  0  0  0  0  0  0  0  0  0  0
  -28.5322   -8.3225  -29.1590 C   0  0  0  0  0  0  0  0  0  0  0  0
  -28.6162   -3.2615  -30.3485 S   0  0  0  0  0  0  0  0  0  0  0  0
  1  2  2  0
  1  3  1  0
  2  4  1  0
  4  5  2  0
  5  6  1  0
  6  7  2  0
  1  7  1  0
  3  8  1  0
  8  9  2  0
  7  9  1  0
  5 10  1  0
M  END
>  <name>  (17) 
Car Nac Nd0 Car Car Car Car Car Car Sul

>  <indices>  (17) 
[0, 1, 2]

>  <tasks>  (17) 
probe_placing close_aromatic_ring close_aromatic_ring close_aromatic_ring close_aromatic_ring ring_built build_to_Nd0 close_aromatic_ring

>  <prot_clashes>  (17) 
0

>  <NBS phar>  (17) 
0.2

>  <NBS_non-phar>  (17) 
0.7751019795735677

>  <NBS>  (17) 
0.9751019795735678

>  <source_stage>  (17) 
scored

>  <source_iter>  (17) 
6

>  <source_parent_mol>  (17) 
0

>  <source_scenario>  (17) 
1 0 1 0 0 0

>  <source_rank_in_scored_call>  (17) 
0

>  <source_current_task>  (17) 
close_aromatic_ring

>  <scenario>  (17) 
1 0 1 0 0 0

>  <current_task>  (17) 
no_task

>  <reason_to_skip>  (17) 
some_atom_counter_exceeded

$$$$

     RDKit          3D

 10 11  0  0  0  0  0  0  0  0999 V2000
  -27.8609   -7.5606  -31.1600 C   0  0  0  0  0  0  0  0  0  0  0  0
  -27.6012   -6.6215  -32.1138 N   0  0  0  0  0  0  0  0  0  0  0  0
  -27.7248   -8.9090  -31.1461 N   0  0  0  0  0  0  0  0  0  0  0  0
  -27.8300   -5.3151  -31.8693 C   0  0  0  0  0  0  0  0  0  0  0  0
  -28.3288   -4.9249  -30.6496 C   0  0  0  0  0  0  0  0  0  0  0  0
  -28.6041   -5.8580  -29.6557 C   0  0  0  0  0  0  0  0  0  0  0  0
  -28.3629   -7.1894  -29.9265 C   0  0  0  0  0  0  0  0  0  0  0  0
  -28.1245   -9.3941  -29.9460 C   0  0  0  0  0  0  0  0  0  0  0  0
  -28.5322   -8.3225  -29.1590 C   0  0  0  0  0  0  0  0  0  0  0  0
  -28.7174   -3.3663  -30.0498 S   0  0  0  0  0  0  0  0  0  0  0  0
  1  2  2  0
  1  3  1  0
  2  4  1  0
  4  5  2  0
  5  6  1  0
  6  7  2  0
  1  7  1  0
  3  8  1  0
  8  9  2  0
  7  9  1  0
  5 10  1  0
M  END
>  <name>  (18) 
Car Nac Nd0 Car Car Car Car Car Car Sul

>  <indices>  (18) 
[0, 1, 2]

>  <tasks>  (18) 
probe_placing close_aromatic_ring close_aromatic_ring close_aromatic_ring close_aromatic_ring ring_built build_to_Nd0 close_aromatic_ring

>  <prot_clashes>  (18) 
0

>  <NBS phar>  (18) 
0.2

>  <NBS_non-phar>  (18) 
0.7751019795735677

>  <NBS>  (18) 
0.9751019795735678

>  <source_stage>  (18) 
scored

>  <source_iter>  (18) 
6

>  <source_parent_mol>  (18) 
0

>  <source_scenario>  (18) 
1 0 1 0 0 0

>  <source_rank_in_scored_call>  (18) 
0

>  <source_current_task>  (18) 
close_aromatic_ring

>  <scenario>  (18) 
1 0 1 0 0 0

>  <current_task>  (18) 
no_task

>  <reason_to_skip>  (18) 
some_atom_counter_exceeded

$$$$

     RDKit          3D

 10 11  0  0  0  0  0  0  0  0999 V2000
  -27.8609   -7.5606  -31.1600 C   0  0  0  0  0  0  0  0  0  0  0  0
  -27.6012   -6.6215  -32.1138 N   0  0  0  0  0  0  0  0  0  0  0  0
  -27.7248   -8.9090  -31.1461 N   0  0  0  0  0  0  0  0  0  0  0  0
  -27.8300   -5.3151  -31.8693 C   0  0  0  0  0  0  0  0  0  0  0  0
  -28.3288   -4.9249  -30.6496 C   0  0  0  0  0  0  0  0  0  0  0  0
  -28.6041   -5.8580  -29.6557 C   0  0  0  0  0  0  0  0  0  0  0  0
  -28.3629   -7.1894  -29.9265 C   0  0  0  0  0  0  0  0  0  0  0  0
  -28.1245   -9.3941  -29.9460 C   0  0  0  0  0  0  0  0  0  0  0  0
  -28.5322   -8.3225  -29.1590 C   0  0  0  0  0  0  0  0  0  0  0  0
  -28.5043   -3.2193  -30.6584 S   0  0  0  0  0  0  0  0  0  0  0  0
  1  2  2  0
  1  3  1  0
  2  4  1  0
  4  5  2  0
  5  6  1  0
  6  7  2  0
  1  7  1  0
  3  8  1  0
  8  9  2  0
  7  9  1  0
  5 10  1  0
M  END
>  <name>  (19) 
Car Nac Nd0 Car Car Car Car Car Car Sul

>  <indices>  (19) 
[0, 1, 2]

>  <tasks>  (19) 
probe_placing close_aromatic_ring close_aromatic_ring close_aromatic_ring close_aromatic_ring ring_built build_to_Nd0 close_aromatic_ring

>  <prot_clashes>  (19) 
0

>  <NBS phar>  (19) 
0.2

>  <NBS_non-phar>  (19) 
0.7751019795735677

>  <NBS>  (19) 
0.9751019795735678

>  <source_stage>  (19) 
scored

>  <source_iter>  (19) 
6

>  <source_parent_mol>  (19) 
0

>  <source_scenario>  (19) 
1 0 1 0 0 0

>  <source_rank_in_scored_call>  (19) 
0

>  <source_current_task>  (19) 
close_aromatic_ring

>  <scenario>  (19) 
1 0 1 0 0 0

>  <current_task>  (19) 
no_task

>  <reason_to_skip>  (19) 
some_atom_counter_exceeded

$$$$

     RDKit          3D

 10 11  0  0  0  0  0  0  0  0999 V2000
  -27.8609   -7.5606  -31.1600 C   0  0  0  0  0  0  0  0  0  0  0  0
  -27.6012   -6.6215  -32.1138 N   0  0  0  0  0  0  0  0  0  0  0  0
  -27.7248   -8.9090  -31.1461 N   0  0  0  0  0  0  0  0  0  0  0  0
  -27.8300   -5.3151  -31.8693 C   0  0  0  0  0  0  0  0  0  0  0  0
  -28.3288   -4.9249  -30.6496 C   0  0  0  0  0  0  0  0  0  0  0  0
  -28.6041   -5.8580  -29.6557 C   0  0  0  0  0  0  0  0  0  0  0  0
  -28.3629   -7.1894  -29.9265 C   0  0  0  0  0  0  0  0  0  0  0  0
  -28.1245   -9.3941  -29.9460 C   0  0  0  0  0  0  0  0  0  0  0  0
  -28.5322   -8.3225  -29.1590 C   0  0  0  0  0  0  0  0  0  0  0  0
  -28.5678   -3.5416  -30.3991 C   0  0  0  0  0  0  0  0  0  0  0  0
  1  2  2  0
  1  3  1  0
  2  4  1  0
  4  5  2  0
  5  6  1  0
  6  7  2  0
  1  7  1  0
  3  8  1  0
  8  9  2  0
  7  9  1  0
  5 10  1  0
M  END
>  <name>  (20) 
Car Nac Nd0 Car Car Car Car Car Car Csp

>  <indices>  (20) 
[0, 1, 2]

>  <tasks>  (20) 
probe_placing close_aromatic_ring close_aromatic_ring close_aromatic_ring close_aromatic_ring ring_built build_to_Nd0 close_aromatic_ring

>  <prot_clashes>  (20) 
0

>  <NBS phar>  (20) 
0.2

>  <NBS_non-phar>  (20) 
0.7751019795735677

>  <NBS>  (20) 
0.9751019795735678

>  <source_stage>  (20) 
scored

>  <source_iter>  (20) 
6

>  <source_parent_mol>  (20) 
0

>  <source_scenario>  (20) 
1 0 1 0 0 0

>  <source_rank_in_scored_call>  (20) 
0

>  <source_current_task>  (20) 
close_aromatic_ring

>  <scenario>  (20) 
1 0 1 0 0 0

>  <current_task>  (20) 
no_task

>  <reason_to_skip>  (20) 
some_atom_counter_exceeded

$$$$

     RDKit          3D

 10 11  0  0  0  0  0  0  0  0999 V2000
  -27.8609   -7.5606  -31.1600 C   0  0  0  0  0  0  0  0  0  0  0  0
  -27.6012   -6.6215  -32.1138 N   0  0  0  0  0  0  0  0  0  0  0  0
  -27.7248   -8.9090  -31.1461 N   0  0  0  0  0  0  0  0  0  0  0  0
  -27.8300   -5.3151  -31.8693 C   0  0  0  0  0  0  0  0  0  0  0  0
  -28.3288   -4.9249  -30.6496 C   0  0  0  0  0  0  0  0  0  0  0  0
  -28.6041   -5.8580  -29.6557 C   0  0  0  0  0  0  0  0  0  0  0  0
  -28.3629   -7.1894  -29.9265 C   0  0  0  0  0  0  0  0  0  0  0  0
  -28.1245   -9.3941  -29.9460 C   0  0  0  0  0  0  0  0  0  0  0  0
  -28.5322   -8.3225  -29.1590 C   0  0  0  0  0  0  0  0  0  0  0  0
  -28.6218   -3.2296  -30.3427 S   0  0  0  0  0  0  0  0  0  0  0  0
  1  2  2  0
  1  3  1  0
  2  4  1  0
  4  5  2  0
  5  6  1  0
  6  7  2  0
  1  7  1  0
  3  8  1  0
  8  9  2  0
  7  9  1  0
  5 10  1  0
M  END
>  <name>  (21) 
Car Nac Nd0 Car Car Car Car Car Car SO2

>  <indices>  (21) 
[0, 1, 2]

>  <tasks>  (21) 
probe_placing close_aromatic_ring close_aromatic_ring close_aromatic_ring close_aromatic_ring ring_built build_to_Nd0 close_aromatic_ring

>  <prot_clashes>  (21) 
0

>  <NBS phar>  (21) 
0.2

>  <NBS_non-phar>  (21) 
0.7751019795735677

>  <NBS>  (21) 
0.9751019795735678

>  <source_stage>  (21) 
scored

>  <source_iter>  (21) 
6

>  <source_parent_mol>  (21) 
0

>  <source_scenario>  (21) 
1 0 1 0 0 0

>  <source_rank_in_scored_call>  (21) 
0

>  <source_current_task>  (21) 
close_aromatic_ring

>  <scenario>  (21) 
1 0 1 0 0 0

>  <current_task>  (21) 
no_task

>  <reason_to_skip>  (21) 
some_atom_counter_exceeded

$$$$

     RDKit          3D

 10 11  0  0  0  0  0  0  0  0999 V2000
  -27.8609   -7.5606  -31.1600 C   0  0  0  0  0  0  0  0  0  0  0  0
  -27.6012   -6.6215  -32.1138 N   0  0  0  0  0  0  0  0  0  0  0  0
  -27.7248   -8.9090  -31.1461 N   0  0  0  0  0  0  0  0  0  0  0  0
  -27.8300   -5.3151  -31.8693 C   0  0  0  0  0  0  0  0  0  0  0  0
  -28.3288   -4.9249  -30.6496 C   0  0  0  0  0  0  0  0  0  0  0  0
  -28.6041   -5.8580  -29.6557 C   0  0  0  0  0  0  0  0  0  0  0  0
  -28.3629   -7.1894  -29.9265 C   0  0  0  0  0  0  0  0  0  0  0  0
  -28.1245   -9.3941  -29.9460 C   0  0  0  0  0  0  0  0  0  0  0  0
  -28.5322   -8.3225  -29.1590 C   0  0  0  0  0  0  0  0  0  0  0  0
  -28.5597   -3.5886  -30.4077 O   0  0  0  0  0  0  0  0  0  0  0  0
  1  2  2  0
  1  3  1  0
  2  4  1  0
  4  5  2  0
  5  6  1  0
  6  7  2  0
  1  7  1  0
  3  8  1  0
  8  9  2  0
  7  9  1  0
  5 10  1  0
M  END
>  <name>  (22) 
Car Nac Nd0 Car Car Car Car Car Car O_a

>  <indices>  (22) 
[0, 1, 2]

>  <tasks>  (22) 
probe_placing close_aromatic_ring close_aromatic_ring close_aromatic_ring close_aromatic_ring ring_built build_to_Nd0 close_aromatic_ring

>  <prot_clashes>  (22) 
0

>  <NBS phar>  (22) 
0.2

>  <NBS_non-phar>  (22) 
0.7751019795735677

>  <NBS>  (22) 
0.9751019795735678

>  <source_stage>  (22) 
scored

>  <source_iter>  (22) 
6

>  <source_parent_mol>  (22) 
0

>  <source_scenario>  (22) 
1 0 1 0 0 0

>  <source_rank_in_scored_call>  (22) 
0

>  <source_current_task>  (22) 
close_aromatic_ring

>  <scenario>  (22) 
1 0 1 0 0 0

>  <current_task>  (22) 
no_task

>  <reason_to_skip>  (22) 
some_atom_counter_exceeded

$$$$

     RDKit          3D

 10 11  0  0  0  0  0  0  0  0999 V2000
  -27.8609   -7.5606  -31.1600 C   0  0  0  0  0  0  0  0  0  0  0  0
  -27.6012   -6.6215  -32.1138 N   0  0  0  0  0  0  0  0  0  0  0  0
  -27.7248   -8.9090  -31.1461 N   0  0  0  0  0  0  0  0  0  0  0  0
  -27.8300   -5.3151  -31.8693 C   0  0  0  0  0  0  0  0  0  0  0  0
  -28.3288   -4.9249  -30.6496 C   0  0  0  0  0  0  0  0  0  0  0  0
  -28.6041   -5.8580  -29.6557 C   0  0  0  0  0  0  0  0  0  0  0  0
  -28.3629   -7.1894  -29.9265 C   0  0  0  0  0  0  0  0  0  0  0  0
  -28.1245   -9.3941  -29.9460 C   0  0  0  0  0  0  0  0  0  0  0  0
  -28.5322   -8.3225  -29.1590 C   0  0  0  0  0  0  0  0  0  0  0  0
  -28.6410   -3.6727  -30.1678 O   0  0  0  0  0  0  0  0  0  0  0  0
  1  2  2  0
  1  3  1  0
  2  4  1  0
  4  5  2  0
  5  6  1  0
  6  7  2  0
  1  7  1  0
  3  8  1  0
  8  9  2  0
  7  9  1  0
  5 10  1  0
M  END
>  <name>  (23) 
Car Nac Nd0 Car Car Car Car Car Car O_a

>  <indices>  (23) 
[0, 1, 2]

>  <tasks>  (23) 
probe_placing close_aromatic_ring close_aromatic_ring close_aromatic_ring close_aromatic_ring ring_built build_to_Nd0 close_aromatic_ring

>  <prot_clashes>  (23) 
0

>  <NBS phar>  (23) 
0.2

>  <NBS_non-phar>  (23) 
0.7751019795735677

>  <NBS>  (23) 
0.9751019795735678

>  <source_stage>  (23) 
scored

>  <source_iter>  (23) 
6

>  <source_parent_mol>  (23) 
0

>  <source_scenario>  (23) 
1 0 1 0 0 0

>  <source_rank_in_scored_call>  (23) 
0

>  <source_current_task>  (23) 
close_aromatic_ring

>  <scenario>  (23) 
1 0 1 0 0 0

>  <current_task>  (23) 
no_task

>  <reason_to_skip>  (23) 
some_atom_counter_exceeded

$$$$

     RDKit          3D

 10 11  0  0  0  0  0  0  0  0999 V2000
  -27.8609   -7.5606  -31.1600 C   0  0  0  0  0  0  0  0  0  0  0  0
  -27.6012   -6.6215  -32.1138 N   0  0  0  0  0  0  0  0  0  0  0  0
  -27.7248   -8.9090  -31.1461 N   0  0  0  0  0  0  0  0  0  0  0  0
  -27.8300   -5.3151  -31.8693 C   0  0  0  0  0  0  0  0  0  0  0  0
  -28.3288   -4.9249  -30.6496 C   0  0  0  0  0  0  0  0  0  0  0  0
  -28.6041   -5.8580  -29.6557 C   0  0  0  0  0  0  0  0  0  0  0  0
  -28.3629   -7.1894  -29.9265 C   0  0  0  0  0  0  0  0  0  0  0  0
  -28.1245   -9.3941  -29.9460 C   0  0  0  0  0  0  0  0  0  0  0  0
  -28.5322   -8.3225  -29.1590 C   0  0  0  0  0  0  0  0  0  0  0  0
  -28.4698   -3.5547  -30.6567 O   0  0  0  0  0  0  0  0  0  0  0  0
  1  2  2  0
  1  3  1  0
  2  4  1  0
  4  5  2  0
  5  6  1  0
  6  7  2  0
  1  7  1  0
  3  8  1  0
  8  9  2  0
  7  9  1  0
  5 10  1  0
M  END
>  <name>  (24) 
Car Nac Nd0 Car Car Car Car Car Car O_a

>  <indices>  (24) 
[0, 1, 2]

>  <tasks>  (24) 
probe_placing close_aromatic_ring close_aromatic_ring close_aromatic_ring close_aromatic_ring ring_built build_to_Nd0 close_aromatic_ring

>  <prot_clashes>  (24) 
0

>  <NBS phar>  (24) 
0.2

>  <NBS_non-phar>  (24) 
0.7751019795735677

>  <NBS>  (24) 
0.9751019795735678

>  <source_stage>  (24) 
scored

>  <source_iter>  (24) 
6

>  <source_parent_mol>  (24) 
0

>  <source_scenario>  (24) 
1 0 1 0 0 0

>  <source_rank_in_scored_call>  (24) 
0

>  <source_current_task>  (24) 
close_aromatic_ring

>  <scenario>  (24) 
1 0 1 0 0 0

>  <current_task>  (24) 
no_task

>  <reason_to_skip>  (24) 
some_atom_counter_exceeded

$$$$

     RDKit          3D

 10 11  0  0  0  0  0  0  0  0999 V2000
  -27.8609   -7.5606  -31.1600 C   0  0  0  0  0  0  0  0  0  0  0  0
  -27.6012   -6.6215  -32.1138 N   0  0  0  0  0  0  0  0  0  0  0  0
  -27.7248   -8.9090  -31.1461 N   0  0  0  0  0  0  0  0  0  0  0  0
  -27.8300   -5.3151  -31.8693 C   0  0  0  0  0  0  0  0  0  0  0  0
  -28.3288   -4.9249  -30.6496 C   0  0  0  0  0  0  0  0  0  0  0  0
  -28.6041   -5.8580  -29.6557 C   0  0  0  0  0  0  0  0  0  0  0  0
  -28.3629   -7.1894  -29.9265 C   0  0  0  0  0  0  0  0  0  0  0  0
  -28.1245   -9.3941  -29.9460 C   0  0  0  0  0  0  0  0  0  0  0  0
  -28.5322   -8.3225  -29.1590 C   0  0  0  0  0  0  0  0  0  0  0  0
  -28.5817   -3.4613  -30.3846 C   0  0  0  0  0  0  0  0  0  0  0  0
  1  2  2  0
  1  3  1  0
  2  4  1  0
  4  5  2  0
  5  6  1  0
  6  7  2  0
  1  7  1  0
  3  8  1  0
  8  9  2  0
  7  9  1  0
  5 10  1  0
M  END
>  <name>  (25) 
Car Nac Nd0 Car Car Car Car Car Car Cs3

>  <indices>  (25) 
[0, 1, 2]

>  <tasks>  (25) 
probe_placing close_aromatic_ring close_aromatic_ring close_aromatic_ring close_aromatic_ring ring_built build_to_Nd0 close_aromatic_ring

>  <prot_clashes>  (25) 
0

>  <NBS phar>  (25) 
0.2

>  <NBS_non-phar>  (25) 
0.7751019795735677

>  <NBS>  (25) 
0.9751019795735678

>  <source_stage>  (25) 
scored

>  <source_iter>  (25) 
6

>  <source_parent_mol>  (25) 
0

>  <source_scenario>  (25) 
1 0 1 0 0 0

>  <source_rank_in_scored_call>  (25) 
0

>  <source_current_task>  (25) 
close_aromatic_ring

>  <scenario>  (25) 
1 0 1 0 0 0

>  <current_task>  (25) 
no_task

>  <reason_to_skip>  (25) 
some_atom_counter_exceeded

$$$$

     RDKit          3D

 10 11  0  0  0  0  0  0  0  0999 V2000
  -27.8609   -7.5606  -31.1600 C   0  0  0  0  0  0  0  0  0  0  0  0
  -27.6012   -6.6215  -32.1138 N   0  0  0  0  0  0  0  0  0  0  0  0
  -27.7248   -8.9090  -31.1461 N   0  0  0  0  0  0  0  0  0  0  0  0
  -27.8300   -5.3151  -31.8693 C   0  0  0  0  0  0  0  0  0  0  0  0
  -28.3288   -4.9249  -30.6496 C   0  0  0  0  0  0  0  0  0  0  0  0
  -28.6041   -5.8580  -29.6557 C   0  0  0  0  0  0  0  0  0  0  0  0
  -28.3629   -7.1894  -29.9265 C   0  0  0  0  0  0  0  0  0  0  0  0
  -28.1245   -9.3941  -29.9460 C   0  0  0  0  0  0  0  0  0  0  0  0
  -28.5322   -8.3225  -29.1590 C   0  0  0  0  0  0  0  0  0  0  0  0
  -28.5812   -3.4641  -30.3851 C   0  0  0  0  0  0  0  0  0  0  0  0
  1  2  2  0
  1  3  1  0
  2  4  1  0
  4  5  2  0
  5  6  1  0
  6  7  2  0
  1  7  1  0
  3  8  1  0
  8  9  2  0
  7  9  1  0
  5 10  1  0
M  END
>  <name>  (26) 
Car Nac Nd0 Car Car Car Car Car Car C3r

>  <indices>  (26) 
[0, 1, 2]

>  <tasks>  (26) 
probe_placing close_aromatic_ring close_aromatic_ring close_aromatic_ring close_aromatic_ring ring_built build_to_Nd0 close_aromatic_ring

>  <prot_clashes>  (26) 
0

>  <NBS phar>  (26) 
0.2

>  <NBS_non-phar>  (26) 
0.7751019795735677

>  <NBS>  (26) 
0.9751019795735678

>  <source_stage>  (26) 
scored

>  <source_iter>  (26) 
6

>  <source_parent_mol>  (26) 
0

>  <source_scenario>  (26) 
1 0 1 0 0 0

>  <source_rank_in_scored_call>  (26) 
0

>  <source_current_task>  (26) 
close_aromatic_ring

>  <scenario>  (26) 
1 0 1 0 0 0

>  <current_task>  (26) 
no_task

>  <reason_to_skip>  (26) 
some_atom_counter_exceeded

$$$$

     RDKit          3D

 10 11  0  0  0  0  0  0  0  0999 V2000
  -27.8609   -7.5606  -31.1600 C   0  0  0  0  0  0  0  0  0  0  0  0
  -27.6012   -6.6215  -32.1138 N   0  0  0  0  0  0  0  0  0  0  0  0
  -27.7248   -8.9090  -31.1461 N   0  0  0  0  0  0  0  0  0  0  0  0
  -27.8300   -5.3151  -31.8693 C   0  0  0  0  0  0  0  0  0  0  0  0
  -28.3288   -4.9249  -30.6496 C   0  0  0  0  0  0  0  0  0  0  0  0
  -28.6041   -5.8580  -29.6557 C   0  0  0  0  0  0  0  0  0  0  0  0
  -28.3629   -7.1894  -29.9265 C   0  0  0  0  0  0  0  0  0  0  0  0
  -28.1245   -9.3941  -29.9460 C   0  0  0  0  0  0  0  0  0  0  0  0
  -28.5322   -8.3225  -29.1590 C   0  0  0  0  0  0  0  0  0  0  0  0
  -28.6700   -3.5561  -30.1229 C   0  0  0  0  0  0  0  0  0  0  0  0
  1  2  2  0
  1  3  1  0
  2  4  1  0
  4  5  2  0
  5  6  1  0
  6  7  2  0
  1  7  1  0
  3  8  1  0
  8  9  2  0
  7  9  1  0
  5 10  1  0
M  END
>  <name>  (27) 
Car Nac Nd0 Car Car Car Car Car Car C3r

>  <indices>  (27) 
[0, 1, 2]

>  <tasks>  (27) 
probe_placing close_aromatic_ring close_aromatic_ring close_aromatic_ring close_aromatic_ring ring_built build_to_Nd0 close_aromatic_ring

>  <prot_clashes>  (27) 
0

>  <NBS phar>  (27) 
0.2

>  <NBS_non-phar>  (27) 
0.7751019795735677

>  <NBS>  (27) 
0.9751019795735678

>  <source_stage>  (27) 
scored

>  <source_iter>  (27) 
6

>  <source_parent_mol>  (27) 
0

>  <source_scenario>  (27) 
1 0 1 0 0 0

>  <source_rank_in_scored_call>  (27) 
0

>  <source_current_task>  (27) 
close_aromatic_ring

>  <scenario>  (27) 
1 0 1 0 0 0

>  <current_task>  (27) 
no_task

>  <reason_to_skip>  (27) 
some_atom_counter_exceeded

$$$$

     RDKit          3D

 10 11  0  0  0  0  0  0  0  0999 V2000
  -27.8609   -7.5606  -31.1600 C   0  0  0  0  0  0  0  0  0  0  0  0
  -27.6012   -6.6215  -32.1138 N   0  0  0  0  0  0  0  0  0  0  0  0
  -27.7248   -8.9090  -31.1461 N   0  0  0  0  0  0  0  0  0  0  0  0
  -27.8300   -5.3151  -31.8693 C   0  0  0  0  0  0  0  0  0  0  0  0
  -28.3288   -4.9249  -30.6496 C   0  0  0  0  0  0  0  0  0  0  0  0
  -28.6041   -5.8580  -29.6557 C   0  0  0  0  0  0  0  0  0  0  0  0
  -28.3629   -7.1894  -29.9265 C   0  0  0  0  0  0  0  0  0  0  0  0
  -28.1245   -9.3941  -29.9460 C   0  0  0  0  0  0  0  0  0  0  0  0
  -28.5322   -8.3225  -29.1590 C   0  0  0  0  0  0  0  0  0  0  0  0
  -28.4829   -3.4270  -30.6573 C   0  0  0  0  0  0  0  0  0  0  0  0
  1  2  2  0
  1  3  1  0
  2  4  1  0
  4  5  2  0
  5  6  1  0
  6  7  2  0
  1  7  1  0
  3  8  1  0
  8  9  2  0
  7  9  1  0
  5 10  1  0
M  END
>  <name>  (28) 
Car Nac Nd0 Car Car Car Car Car Car C3r

>  <indices>  (28) 
[0, 1, 2]

>  <tasks>  (28) 
probe_placing close_aromatic_ring close_aromatic_ring close_aromatic_ring close_aromatic_ring ring_built build_to_Nd0 close_aromatic_ring

>  <prot_clashes>  (28) 
0

>  <NBS phar>  (28) 
0.2

>  <NBS_non-phar>  (28) 
0.7751019795735677

>  <NBS>  (28) 
0.9751019795735678

>  <source_stage>  (28) 
scored

>  <source_iter>  (28) 
6

>  <source_parent_mol>  (28) 
0

>  <source_scenario>  (28) 
1 0 1 0 0 0

>  <source_rank_in_scored_call>  (28) 
0

>  <source_current_task>  (28) 
close_aromatic_ring

>  <scenario>  (28) 
1 0 1 0 0 0

>  <current_task>  (28) 
no_task

>  <reason_to_skip>  (28) 
some_atom_counter_exceeded

$$$$

     RDKit          3D

 10 11  0  0  0  0  0  0  0  0999 V2000
  -27.8609   -7.5606  -31.1600 C   0  0  0  0  0  0  0  0  0  0  0  0
  -27.6012   -6.6215  -32.1138 N   0  0  0  0  0  0  0  0  0  0  0  0
  -27.7248   -8.9090  -31.1461 N   0  0  0  0  0  0  0  0  0  0  0  0
  -27.8300   -5.3151  -31.8693 C   0  0  0  0  0  0  0  0  0  0  0  0
  -28.3288   -4.9249  -30.6496 C   0  0  0  0  0  0  0  0  0  0  0  0
  -28.6041   -5.8580  -29.6557 C   0  0  0  0  0  0  0  0  0  0  0  0
  -28.3629   -7.1894  -29.9265 C   0  0  0  0  0  0  0  0  0  0  0  0
  -28.1245   -9.3941  -29.9460 C   0  0  0  0  0  0  0  0  0  0  0  0
  -28.5322   -8.3225  -29.1590 C   0  0  0  0  0  0  0  0  0  0  0  0
  -28.5574   -3.6023  -30.4101 O   0  0  0  0  0  0  0  0  0  0  0  0
  1  2  2  0
  1  3  1  0
  2  4  1  0
  4  5  2  0
  5  6  1  0
  6  7  2  0
  1  7  1  0
  3  8  1  0
  8  9  2  0
  7  9  1  0
  5 10  1  0
M  END
>  <name>  (29) 
Car Nac Nd0 Car Car Car Car Car Car O_d

>  <indices>  (29) 
[0, 1, 2]

>  <tasks>  (29) 
probe_placing close_aromatic_ring close_aromatic_ring close_aromatic_ring close_aromatic_ring ring_built build_to_Nd0 close_aromatic_ring

>  <prot_clashes>  (29) 
0

>  <NBS phar>  (29) 
0.2

>  <NBS_non-phar>  (29) 
0.7751019795735677

>  <NBS>  (29) 
0.9751019795735678

>  <source_stage>  (29) 
scored

>  <source_iter>  (29) 
6

>  <source_parent_mol>  (29) 
0

>  <source_scenario>  (29) 
1 0 1 0 0 0

>  <source_rank_in_scored_call>  (29) 
0

>  <source_current_task>  (29) 
close_aromatic_ring

>  <scenario>  (29) 
1 0 1 0 0 0

>  <current_task>  (29) 
no_task

>  <reason_to_skip>  (29) 
some_atom_counter_exceeded

$$$$

     RDKit          3D

 10 11  0  0  0  0  0  0  0  0999 V2000
  -27.8609   -7.5606  -31.1600 C   0  0  0  0  0  0  0  0  0  0  0  0
  -27.6012   -6.6215  -32.1138 N   0  0  0  0  0  0  0  0  0  0  0  0
  -27.7248   -8.9090  -31.1461 N   0  0  0  0  0  0  0  0  0  0  0  0
  -27.8300   -5.3151  -31.8693 C   0  0  0  0  0  0  0  0  0  0  0  0
  -28.3288   -4.9249  -30.6496 C   0  0  0  0  0  0  0  0  0  0  0  0
  -28.6041   -5.8580  -29.6557 C   0  0  0  0  0  0  0  0  0  0  0  0
  -28.3629   -7.1894  -29.9265 C   0  0  0  0  0  0  0  0  0  0  0  0
  -28.1245   -9.3941  -29.9460 C   0  0  0  0  0  0  0  0  0  0  0  0
  -28.5322   -8.3225  -29.1590 C   0  0  0  0  0  0  0  0  0  0  0  0
  -28.6288   -3.1887  -30.3353 Cl  0  0  0  0  0  0  0  0  0  0  0  0
  1  2  2  0
  1  3  1  0
  2  4  1  0
  4  5  2  0
  5  6  1  0
  6  7  2  0
  1  7  1  0
  3  8  1  0
  8  9  2  0
  7  9  1  0
  5 10  1  0
M  END
>  <name>  (30) 
Car Nac Nd0 Car Car Car Car Car Car Hal

>  <indices>  (30) 
[0, 1, 2]

>  <tasks>  (30) 
probe_placing close_aromatic_ring close_aromatic_ring close_aromatic_ring close_aromatic_ring ring_built build_to_Nd0 close_aromatic_ring

>  <prot_clashes>  (30) 
0

>  <NBS phar>  (30) 
0.2

>  <NBS_non-phar>  (30) 
0.7751019795735677

>  <NBS>  (30) 
0.9751019795735678

>  <source_stage>  (30) 
scored

>  <source_iter>  (30) 
6

>  <source_parent_mol>  (30) 
0

>  <source_scenario>  (30) 
1 0 1 0 0 0

>  <source_rank_in_scored_call>  (30) 
0

>  <source_current_task>  (30) 
close_aromatic_ring

>  <scenario>  (30) 
1 0 1 0 0 0

>  <current_task>  (30) 
no_task

>  <reason_to_skip>  (30) 
some_atom_counter_exceeded

$$$$

     RDKit          3D

 10 11  0  0  0  0  0  0  0  0999 V2000
  -27.8609   -7.5606  -31.1600 C   0  0  0  0  0  0  0  0  0  0  0  0
  -27.6012   -6.6215  -32.1138 N   0  0  0  0  0  0  0  0  0  0  0  0
  -27.7248   -8.9090  -31.1461 N   0  0  0  0  0  0  0  0  0  0  0  0
  -27.8300   -5.3151  -31.8693 C   0  0  0  0  0  0  0  0  0  0  0  0
  -28.3288   -4.9249  -30.6496 C   0  0  0  0  0  0  0  0  0  0  0  0
  -28.6041   -5.8580  -29.6557 C   0  0  0  0  0  0  0  0  0  0  0  0
  -28.3629   -7.1894  -29.9265 C   0  0  0  0  0  0  0  0  0  0  0  0
  -28.1245   -9.3941  -29.9460 C   0  0  0  0  0  0  0  0  0  0  0  0
  -28.5322   -8.3225  -29.1590 C   0  0  0  0  0  0  0  0  0  0  0  0
  -29.1014   -5.4658  -28.4404 N   0  0  0  0  0  0  0  0  0  0  0  0
  1  2  2  0
  1  3  1  0
  2  4  1  0
  4  5  2  0
  5  6  1  0
  6  7  2  0
  1  7  1  0
  3  8  1  0
  8  9  2  0
  7  9  1  0
  6 10  1  0
M  CHG  1  10   1
M  END
>  <name>  (31) 
Car Nac Nd0 Car Car Car Car Car Car Nd+

>  <indices>  (31) 
[0, 1, 2]

>  <tasks>  (31) 
probe_placing close_aromatic_ring close_aromatic_ring close_aromatic_ring close_aromatic_ring ring_built build_to_Nd0 close_aromatic_ring

>  <prot_clashes>  (31) 
0

>  <NBS phar>  (31) 
0.2

>  <NBS_non-phar>  (31) 
0.7751019795735677

>  <NBS>  (31) 
0.9751019795735678

>  <source_stage>  (31) 
scored

>  <source_iter>  (31) 
6

>  <source_parent_mol>  (31) 
0

>  <source_scenario>  (31) 
1 0 1 0 0 0

>  <source_rank_in_scored_call>  (31) 
0

>  <source_current_task>  (31) 
close_aromatic_ring

>  <scenario>  (31) 
1 0 1 0 0 0

>  <current_task>  (31) 
no_task

>  <reason_to_skip>  (31) 
some_atom_counter_exceeded

$$$$

     RDKit          3D

 10 11  0  0  0  0  0  0  0  0999 V2000
  -27.8609   -7.5606  -31.1600 C   0  0  0  0  0  0  0  0  0  0  0  0
  -27.6012   -6.6215  -32.1138 N   0  0  0  0  0  0  0  0  0  0  0  0
  -27.7248   -8.9090  -31.1461 N   0  0  0  0  0  0  0  0  0  0  0  0
  -27.8300   -5.3151  -31.8693 C   0  0  0  0  0  0  0  0  0  0  0  0
  -28.3288   -4.9249  -30.6496 C   0  0  0  0  0  0  0  0  0  0  0  0
  -28.6041   -5.8580  -29.6557 C   0  0  0  0  0  0  0  0  0  0  0  0
  -28.3629   -7.1894  -29.9265 C   0  0  0  0  0  0  0  0  0  0  0  0
  -28.1245   -9.3941  -29.9460 C   0  0  0  0  0  0  0  0  0  0  0  0
  -28.5322   -8.3225  -29.1590 C   0  0  0  0  0  0  0  0  0  0  0  0
  -29.2263   -5.3673  -28.1351 S   0  0  0  0  0  0  0  0  0  0  0  0
  1  2  2  0
  1  3  1  0
  2  4  1  0
  4  5  2  0
  5  6  1  0
  6  7  2  0
  1  7  1  0
  3  8  1  0
  8  9  2  0
  7  9  1  0
  6 10  1  0
M  END
>  <name>  (32) 
Car Nac Nd0 Car Car Car Car Car Car Sul

>  <indices>  (32) 
[0, 1, 2]

>  <tasks>  (32) 
probe_placing close_aromatic_ring close_aromatic_ring close_aromatic_ring close_aromatic_ring ring_built build_to_Nd0 close_aromatic_ring

>  <prot_clashes>  (32) 
0

>  <NBS phar>  (32) 
0.2

>  <NBS_non-phar>  (32) 
0.7751019795735677

>  <NBS>  (32) 
0.9751019795735678

>  <source_stage>  (32) 
scored

>  <source_iter>  (32) 
6

>  <source_parent_mol>  (32) 
0

>  <source_scenario>  (32) 
1 0 1 0 0 0

>  <source_rank_in_scored_call>  (32) 
0

>  <source_current_task>  (32) 
close_aromatic_ring

>  <scenario>  (32) 
1 0 1 0 0 0

>  <current_task>  (32) 
no_task

>  <reason_to_skip>  (32) 
some_atom_counter_exceeded

$$$$

     RDKit          3D

 10 11  0  0  0  0  0  0  0  0999 V2000
  -27.8609   -7.5606  -31.1600 C   0  0  0  0  0  0  0  0  0  0  0  0
  -27.6012   -6.6215  -32.1138 N   0  0  0  0  0  0  0  0  0  0  0  0
  -27.7248   -8.9090  -31.1461 N   0  0  0  0  0  0  0  0  0  0  0  0
  -27.8300   -5.3151  -31.8693 C   0  0  0  0  0  0  0  0  0  0  0  0
  -28.3288   -4.9249  -30.6496 C   0  0  0  0  0  0  0  0  0  0  0  0
  -28.6041   -5.8580  -29.6557 C   0  0  0  0  0  0  0  0  0  0  0  0
  -28.3629   -7.1894  -29.9265 C   0  0  0  0  0  0  0  0  0  0  0  0
  -28.1245   -9.3941  -29.9460 C   0  0  0  0  0  0  0  0  0  0  0  0
  -28.5322   -8.3225  -29.1590 C   0  0  0  0  0  0  0  0  0  0  0  0
  -29.2201   -5.6739  -28.0661 S   0  0  0  0  0  0  0  0  0  0  0  0
  1  2  2  0
  1  3  1  0
  2  4  1  0
  4  5  2  0
  5  6  1  0
  6  7  2  0
  1  7  1  0
  3  8  1  0
  8  9  2  0
  7  9  1  0
  6 10  1  0
M  END
>  <name>  (33) 
Car Nac Nd0 Car Car Car Car Car Car Sul

>  <indices>  (33) 
[0, 1, 2]

>  <tasks>  (33) 
probe_placing close_aromatic_ring close_aromatic_ring close_aromatic_ring close_aromatic_ring ring_built build_to_Nd0 close_aromatic_ring

>  <prot_clashes>  (33) 
0

>  <NBS phar>  (33) 
0.2

>  <NBS_non-phar>  (33) 
0.7751019795735677

>  <NBS>  (33) 
0.9751019795735678

>  <source_stage>  (33) 
scored

>  <source_iter>  (33) 
6

>  <source_parent_mol>  (33) 
0

>  <source_scenario>  (33) 
1 0 1 0 0 0

>  <source_rank_in_scored_call>  (33) 
0

>  <source_current_task>  (33) 
close_aromatic_ring

>  <scenario>  (33) 
1 0 1 0 0 0

>  <current_task>  (33) 
no_task

>  <reason_to_skip>  (33) 
some_atom_counter_exceeded

$$$$

     RDKit          3D

 10 11  0  0  0  0  0  0  0  0999 V2000
  -27.8609   -7.5606  -31.1600 C   0  0  0  0  0  0  0  0  0  0  0  0
  -27.6012   -6.6215  -32.1138 N   0  0  0  0  0  0  0  0  0  0  0  0
  -27.7248   -8.9090  -31.1461 N   0  0  0  0  0  0  0  0  0  0  0  0
  -27.8300   -5.3151  -31.8693 C   0  0  0  0  0  0  0  0  0  0  0  0
  -28.3288   -4.9249  -30.6496 C   0  0  0  0  0  0  0  0  0  0  0  0
  -28.6041   -5.8580  -29.6557 C   0  0  0  0  0  0  0  0  0  0  0  0
  -28.3629   -7.1894  -29.9265 C   0  0  0  0  0  0  0  0  0  0  0  0
  -28.1245   -9.3941  -29.9460 C   0  0  0  0  0  0  0  0  0  0  0  0
  -28.5322   -8.3225  -29.1590 C   0  0  0  0  0  0  0  0  0  0  0  0
  -29.2117   -5.0772  -28.2552 S   0  0  0  0  0  0  0  0  0  0  0  0
  1  2  2  0
  1  3  1  0
  2  4  1  0
  4  5  2  0
  5  6  1  0
  6  7  2  0
  1  7  1  0
  3  8  1  0
  8  9  2  0
  7  9  1  0
  6 10  1  0
M  END
>  <name>  (34) 
Car Nac Nd0 Car Car Car Car Car Car Sul

>  <indices>  (34) 
[0, 1, 2]

>  <tasks>  (34) 
probe_placing close_aromatic_ring close_aromatic_ring close_aromatic_ring close_aromatic_ring ring_built build_to_Nd0 close_aromatic_ring

>  <prot_clashes>  (34) 
0

>  <NBS phar>  (34) 
0.2

>  <NBS_non-phar>  (34) 
0.7751019795735677

>  <NBS>  (34) 
0.9751019795735678

>  <source_stage>  (34) 
scored

>  <source_iter>  (34) 
6

>  <source_parent_mol>  (34) 
0

>  <source_scenario>  (34) 
1 0 1 0 0 0

>  <source_rank_in_scored_call>  (34) 
0

>  <source_current_task>  (34) 
close_aromatic_ring

>  <scenario>  (34) 
1 0 1 0 0 0

>  <current_task>  (34) 
no_task

>  <reason_to_skip>  (34) 
some_atom_counter_exceeded

$$$$

     RDKit          3D

 10 11  0  0  0  0  0  0  0  0999 V2000
  -27.8609   -7.5606  -31.1600 C   0  0  0  0  0  0  0  0  0  0  0  0
  -27.6012   -6.6215  -32.1138 N   0  0  0  0  0  0  0  0  0  0  0  0
  -27.7248   -8.9090  -31.1461 N   0  0  0  0  0  0  0  0  0  0  0  0
  -27.8300   -5.3151  -31.8693 C   0  0  0  0  0  0  0  0  0  0  0  0
  -28.3288   -4.9249  -30.6496 C   0  0  0  0  0  0  0  0  0  0  0  0
  -28.6041   -5.8580  -29.6557 C   0  0  0  0  0  0  0  0  0  0  0  0
  -28.3629   -7.1894  -29.9265 C   0  0  0  0  0  0  0  0  0  0  0  0
  -28.1245   -9.3941  -29.9460 C   0  0  0  0  0  0  0  0  0  0  0  0
  -28.5322   -8.3225  -29.1590 C   0  0  0  0  0  0  0  0  0  0  0  0
  -29.1216   -5.4499  -28.3911 C   0  0  0  0  0  0  0  0  0  0  0  0
  1  2  2  0
  1  3  1  0
  2  4  1  0
  4  5  2  0
  5  6  1  0
  6  7  2  0
  1  7  1  0
  3  8  1  0
  8  9  2  0
  7  9  1  0
  6 10  1  0
M  END
>  <name>  (35) 
Car Nac Nd0 Car Car Car Car Car Car Csp

>  <indices>  (35) 
[0, 1, 2]

>  <tasks>  (35) 
probe_placing close_aromatic_ring close_aromatic_ring close_aromatic_ring close_aromatic_ring ring_built build_to_Nd0 close_aromatic_ring

>  <prot_clashes>  (35) 
0

>  <NBS phar>  (35) 
0.2

>  <NBS_non-phar>  (35) 
0.7751019795735677

>  <NBS>  (35) 
0.9751019795735678

>  <source_stage>  (35) 
scored

>  <source_iter>  (35) 
6

>  <source_parent_mol>  (35) 
0

>  <source_scenario>  (35) 
1 0 1 0 0 0

>  <source_rank_in_scored_call>  (35) 
0

>  <source_current_task>  (35) 
close_aromatic_ring

>  <scenario>  (35) 
1 0 1 0 0 0

>  <current_task>  (35) 
no_task

>  <reason_to_skip>  (35) 
some_atom_counter_exceeded

$$$$

     RDKit          3D

 10 11  0  0  0  0  0  0  0  0999 V2000
  -27.8609   -7.5606  -31.1600 C   0  0  0  0  0  0  0  0  0  0  0  0
  -27.6012   -6.6215  -32.1138 N   0  0  0  0  0  0  0  0  0  0  0  0
  -27.7248   -8.9090  -31.1461 N   0  0  0  0  0  0  0  0  0  0  0  0
  -27.8300   -5.3151  -31.8693 C   0  0  0  0  0  0  0  0  0  0  0  0
  -28.3288   -4.9249  -30.6496 C   0  0  0  0  0  0  0  0  0  0  0  0
  -28.6041   -5.8580  -29.6557 C   0  0  0  0  0  0  0  0  0  0  0  0
  -28.3629   -7.1894  -29.9265 C   0  0  0  0  0  0  0  0  0  0  0  0
  -28.1245   -9.3941  -29.9460 C   0  0  0  0  0  0  0  0  0  0  0  0
  -28.5322   -8.3225  -29.1590 C   0  0  0  0  0  0  0  0  0  0  0  0
  -29.2383   -5.3579  -28.1060 S   0  0  0  0  0  0  0  0  0  0  0  0
  1  2  2  0
  1  3  1  0
  2  4  1  0
  4  5  2  0
  5  6  1  0
  6  7  2  0
  1  7  1  0
  3  8  1  0
  8  9  2  0
  7  9  1  0
  6 10  1  0
M  END
>  <name>  (36) 
Car Nac Nd0 Car Car Car Car Car Car SO2

>  <indices>  (36) 
[0, 1, 2]

>  <tasks>  (36) 
probe_placing close_aromatic_ring close_aromatic_ring close_aromatic_ring close_aromatic_ring ring_built build_to_Nd0 close_aromatic_ring

>  <prot_clashes>  (36) 
0

>  <NBS phar>  (36) 
0.2

>  <NBS_non-phar>  (36) 
0.7751019795735677

>  <NBS>  (36) 
0.9751019795735678

>  <source_stage>  (36) 
scored

>  <source_iter>  (36) 
6

>  <source_parent_mol>  (36) 
0

>  <source_scenario>  (36) 
1 0 1 0 0 0

>  <source_rank_in_scored_call>  (36) 
0

>  <source_current_task>  (36) 
close_aromatic_ring

>  <scenario>  (36) 
1 0 1 0 0 0

>  <current_task>  (36) 
no_task

>  <reason_to_skip>  (36) 
some_atom_counter_exceeded

$$$$

     RDKit          3D

 10 11  0  0  0  0  0  0  0  0999 V2000
  -27.8609   -7.5606  -31.1600 C   0  0  0  0  0  0  0  0  0  0  0  0
  -27.6012   -6.6215  -32.1138 N   0  0  0  0  0  0  0  0  0  0  0  0
  -27.7248   -8.9090  -31.1461 N   0  0  0  0  0  0  0  0  0  0  0  0
  -27.8300   -5.3151  -31.8693 C   0  0  0  0  0  0  0  0  0  0  0  0
  -28.3288   -4.9249  -30.6496 C   0  0  0  0  0  0  0  0  0  0  0  0
  -28.6041   -5.8580  -29.6557 C   0  0  0  0  0  0  0  0  0  0  0  0
  -28.3629   -7.1894  -29.9265 C   0  0  0  0  0  0  0  0  0  0  0  0
  -28.1245   -9.3941  -29.9460 C   0  0  0  0  0  0  0  0  0  0  0  0
  -28.5322   -8.3225  -29.1590 C   0  0  0  0  0  0  0  0  0  0  0  0
  -29.1040   -5.4638  -28.4341 O   0  0  0  0  0  0  0  0  0  0  0  0
  1  2  2  0
  1  3  1  0
  2  4  1  0
  4  5  2  0
  5  6  1  0
  6  7  2  0
  1  7  1  0
  3  8  1  0
  8  9  2  0
  7  9  1  0
  6 10  1  0
M  END
>  <name>  (37) 
Car Nac Nd0 Car Car Car Car Car Car O_a

>  <indices>  (37) 
[0, 1, 2]

>  <tasks>  (37) 
probe_placing close_aromatic_ring close_aromatic_ring close_aromatic_ring close_aromatic_ring ring_built build_to_Nd0 close_aromatic_ring

>  <prot_clashes>  (37) 
0

>  <NBS phar>  (37) 
0.2

>  <NBS_non-phar>  (37) 
0.7751019795735677

>  <NBS>  (37) 
0.9751019795735678

>  <source_stage>  (37) 
scored

>  <source_iter>  (37) 
6

>  <source_parent_mol>  (37) 
0

>  <source_scenario>  (37) 
1 0 1 0 0 0

>  <source_rank_in_scored_call>  (37) 
0

>  <source_current_task>  (37) 
close_aromatic_ring

>  <scenario>  (37) 
1 0 1 0 0 0

>  <current_task>  (37) 
no_task

>  <reason_to_skip>  (37) 
some_atom_counter_exceeded

$$$$

     RDKit          3D

 10 11  0  0  0  0  0  0  0  0999 V2000
  -27.8609   -7.5606  -31.1600 C   0  0  0  0  0  0  0  0  0  0  0  0
  -27.6012   -6.6215  -32.1138 N   0  0  0  0  0  0  0  0  0  0  0  0
  -27.7248   -8.9090  -31.1461 N   0  0  0  0  0  0  0  0  0  0  0  0
  -27.8300   -5.3151  -31.8693 C   0  0  0  0  0  0  0  0  0  0  0  0
  -28.3288   -4.9249  -30.6496 C   0  0  0  0  0  0  0  0  0  0  0  0
  -28.6041   -5.8580  -29.6557 C   0  0  0  0  0  0  0  0  0  0  0  0
  -28.3629   -7.1894  -29.9265 C   0  0  0  0  0  0  0  0  0  0  0  0
  -28.1245   -9.3941  -29.9460 C   0  0  0  0  0  0  0  0  0  0  0  0
  -28.5322   -8.3225  -29.1590 C   0  0  0  0  0  0  0  0  0  0  0  0
  -29.0990   -5.7101  -28.3787 O   0  0  0  0  0  0  0  0  0  0  0  0
  1  2  2  0
  1  3  1  0
  2  4  1  0
  4  5  2  0
  5  6  1  0
  6  7  2  0
  1  7  1  0
  3  8  1  0
  8  9  2  0
  7  9  1  0
  6 10  1  0
M  END
>  <name>  (38) 
Car Nac Nd0 Car Car Car Car Car Car O_a

>  <indices>  (38) 
[0, 1, 2]

>  <tasks>  (38) 
probe_placing close_aromatic_ring close_aromatic_ring close_aromatic_ring close_aromatic_ring ring_built build_to_Nd0 close_aromatic_ring

>  <prot_clashes>  (38) 
0

>  <NBS phar>  (38) 
0.2

>  <NBS_non-phar>  (38) 
0.7751019795735677

>  <NBS>  (38) 
0.9751019795735678

>  <source_stage>  (38) 
scored

>  <source_iter>  (38) 
6

>  <source_parent_mol>  (38) 
0

>  <source_scenario>  (38) 
1 0 1 0 0 0

>  <source_rank_in_scored_call>  (38) 
0

>  <source_current_task>  (38) 
close_aromatic_ring

>  <scenario>  (38) 
1 0 1 0 0 0

>  <current_task>  (38) 
no_task

>  <reason_to_skip>  (38) 
some_atom_counter_exceeded

$$$$

     RDKit          3D

 10 11  0  0  0  0  0  0  0  0999 V2000
  -27.8609   -7.5606  -31.1600 C   0  0  0  0  0  0  0  0  0  0  0  0
  -27.6012   -6.6215  -32.1138 N   0  0  0  0  0  0  0  0  0  0  0  0
  -27.7248   -8.9090  -31.1461 N   0  0  0  0  0  0  0  0  0  0  0  0
  -27.8300   -5.3151  -31.8693 C   0  0  0  0  0  0  0  0  0  0  0  0
  -28.3288   -4.9249  -30.6496 C   0  0  0  0  0  0  0  0  0  0  0  0
  -28.6041   -5.8580  -29.6557 C   0  0  0  0  0  0  0  0  0  0  0  0
  -28.3629   -7.1894  -29.9265 C   0  0  0  0  0  0  0  0  0  0  0  0
  -28.1245   -9.3941  -29.9460 C   0  0  0  0  0  0  0  0  0  0  0  0
  -28.5322   -8.3225  -29.1590 C   0  0  0  0  0  0  0  0  0  0  0  0
  -29.0922   -5.2308  -28.5306 O   0  0  0  0  0  0  0  0  0  0  0  0
  1  2  2  0
  1  3  1  0
  2  4  1  0
  4  5  2  0
  5  6  1  0
  6  7  2  0
  1  7  1  0
  3  8  1  0
  8  9  2  0
  7  9  1  0
  6 10  1  0
M  END
>  <name>  (39) 
Car Nac Nd0 Car Car Car Car Car Car O_a

>  <indices>  (39) 
[0, 1, 2]

>  <tasks>  (39) 
probe_placing close_aromatic_ring close_aromatic_ring close_aromatic_ring close_aromatic_ring ring_built build_to_Nd0 close_aromatic_ring

>  <prot_clashes>  (39) 
0

>  <NBS phar>  (39) 
0.2

>  <NBS_non-phar>  (39) 
0.7751019795735677

>  <NBS>  (39) 
0.9751019795735678

>  <source_stage>  (39) 
scored

>  <source_iter>  (39) 
6

>  <source_parent_mol>  (39) 
0

>  <source_scenario>  (39) 
1 0 1 0 0 0

>  <source_rank_in_scored_call>  (39) 
0

>  <source_current_task>  (39) 
close_aromatic_ring

>  <scenario>  (39) 
1 0 1 0 0 0

>  <current_task>  (39) 
no_task

>  <reason_to_skip>  (39) 
some_atom_counter_exceeded

$$$$

     RDKit          3D

 10 11  0  0  0  0  0  0  0  0999 V2000
  -27.8609   -7.5606  -31.1600 C   0  0  0  0  0  0  0  0  0  0  0  0
  -27.6012   -6.6215  -32.1138 N   0  0  0  0  0  0  0  0  0  0  0  0
  -27.7248   -8.9090  -31.1461 N   0  0  0  0  0  0  0  0  0  0  0  0
  -27.8300   -5.3151  -31.8693 C   0  0  0  0  0  0  0  0  0  0  0  0
  -28.3288   -4.9249  -30.6496 C   0  0  0  0  0  0  0  0  0  0  0  0
  -28.6041   -5.8580  -29.6557 C   0  0  0  0  0  0  0  0  0  0  0  0
  -28.3629   -7.1894  -29.9265 C   0  0  0  0  0  0  0  0  0  0  0  0
  -28.1245   -9.3941  -29.9460 C   0  0  0  0  0  0  0  0  0  0  0  0
  -28.5322   -8.3225  -29.1590 C   0  0  0  0  0  0  0  0  0  0  0  0
  -29.1516   -5.4262  -28.3178 C   0  0  0  0  0  0  0  0  0  0  0  0
  1  2  2  0
  1  3  1  0
  2  4  1  0
  4  5  2  0
  5  6  1  0
  6  7  2  0
  1  7  1  0
  3  8  1  0
  8  9  2  0
  7  9  1  0
  6 10  1  0
M  END
>  <name>  (40) 
Car Nac Nd0 Car Car Car Car Car Car Cs3

>  <indices>  (40) 
[0, 1, 2]

>  <tasks>  (40) 
probe_placing close_aromatic_ring close_aromatic_ring close_aromatic_ring close_aromatic_ring ring_built build_to_Nd0 close_aromatic_ring

>  <prot_clashes>  (40) 
0

>  <NBS phar>  (40) 
0.2

>  <NBS_non-phar>  (40) 
0.7751019795735677

>  <NBS>  (40) 
0.9751019795735678

>  <source_stage>  (40) 
scored

>  <source_iter>  (40) 
6

>  <source_parent_mol>  (40) 
0

>  <source_scenario>  (40) 
1 0 1 0 0 0

>  <source_rank_in_scored_call>  (40) 
0

>  <source_current_task>  (40) 
close_aromatic_ring

>  <scenario>  (40) 
1 0 1 0 0 0

>  <current_task>  (40) 
no_task

>  <reason_to_skip>  (40) 
some_atom_counter_exceeded

$$$$

     RDKit          3D

 10 11  0  0  0  0  0  0  0  0999 V2000
  -27.8609   -7.5606  -31.1600 C   0  0  0  0  0  0  0  0  0  0  0  0
  -27.6012   -6.6215  -32.1138 N   0  0  0  0  0  0  0  0  0  0  0  0
  -27.7248   -8.9090  -31.1461 N   0  0  0  0  0  0  0  0  0  0  0  0
  -27.8300   -5.3151  -31.8693 C   0  0  0  0  0  0  0  0  0  0  0  0
  -28.3288   -4.9249  -30.6496 C   0  0  0  0  0  0  0  0  0  0  0  0
  -28.6041   -5.8580  -29.6557 C   0  0  0  0  0  0  0  0  0  0  0  0
  -28.3629   -7.1894  -29.9265 C   0  0  0  0  0  0  0  0  0  0  0  0
  -28.1245   -9.3941  -29.9460 C   0  0  0  0  0  0  0  0  0  0  0  0
  -28.5322   -8.3225  -29.1590 C   0  0  0  0  0  0  0  0  0  0  0  0
  -29.1505   -5.4271  -28.3203 C   0  0  0  0  0  0  0  0  0  0  0  0
  1  2  2  0
  1  3  1  0
  2  4  1  0
  4  5  2  0
  5  6  1  0
  6  7  2  0
  1  7  1  0
  3  8  1  0
  8  9  2  0
  7  9  1  0
  6 10  1  0
M  END
>  <name>  (41) 
Car Nac Nd0 Car Car Car Car Car Car C3r

>  <indices>  (41) 
[0, 1, 2]

>  <tasks>  (41) 
probe_placing close_aromatic_ring close_aromatic_ring close_aromatic_ring close_aromatic_ring ring_built build_to_Nd0 close_aromatic_ring

>  <prot_clashes>  (41) 
0

>  <NBS phar>  (41) 
0.2

>  <NBS_non-phar>  (41) 
0.7751019795735677

>  <NBS>  (41) 
0.9751019795735678

>  <source_stage>  (41) 
scored

>  <source_iter>  (41) 
6

>  <source_parent_mol>  (41) 
0

>  <source_scenario>  (41) 
1 0 1 0 0 0

>  <source_rank_in_scored_call>  (41) 
0

>  <source_current_task>  (41) 
close_aromatic_ring

>  <scenario>  (41) 
1 0 1 0 0 0

>  <current_task>  (41) 
no_task

>  <reason_to_skip>  (41) 
some_atom_counter_exceeded

$$$$

     RDKit          3D

 10 11  0  0  0  0  0  0  0  0999 V2000
  -27.8609   -7.5606  -31.1600 C   0  0  0  0  0  0  0  0  0  0  0  0
  -27.6012   -6.6215  -32.1138 N   0  0  0  0  0  0  0  0  0  0  0  0
  -27.7248   -8.9090  -31.1461 N   0  0  0  0  0  0  0  0  0  0  0  0
  -27.8300   -5.3151  -31.8693 C   0  0  0  0  0  0  0  0  0  0  0  0
  -28.3288   -4.9249  -30.6496 C   0  0  0  0  0  0  0  0  0  0  0  0
  -28.6041   -5.8580  -29.6557 C   0  0  0  0  0  0  0  0  0  0  0  0
  -28.3629   -7.1894  -29.9265 C   0  0  0  0  0  0  0  0  0  0  0  0
  -28.1245   -9.3941  -29.9460 C   0  0  0  0  0  0  0  0  0  0  0  0
  -28.5322   -8.3225  -29.1590 C   0  0  0  0  0  0  0  0  0  0  0  0
  -29.1451   -5.6963  -28.2597 C   0  0  0  0  0  0  0  0  0  0  0  0
  1  2  2  0
  1  3  1  0
  2  4  1  0
  4  5  2  0
  5  6  1  0
  6  7  2  0
  1  7  1  0
  3  8  1  0
  8  9  2  0
  7  9  1  0
  6 10  1  0
M  END
>  <name>  (42) 
Car Nac Nd0 Car Car Car Car Car Car C3r

>  <indices>  (42) 
[0, 1, 2]

>  <tasks>  (42) 
probe_placing close_aromatic_ring close_aromatic_ring close_aromatic_ring close_aromatic_ring ring_built build_to_Nd0 close_aromatic_ring

>  <prot_clashes>  (42) 
0

>  <NBS phar>  (42) 
0.2

>  <NBS_non-phar>  (42) 
0.7751019795735677

>  <NBS>  (42) 
0.9751019795735678

>  <source_stage>  (42) 
scored

>  <source_iter>  (42) 
6

>  <source_parent_mol>  (42) 
0

>  <source_scenario>  (42) 
1 0 1 0 0 0

>  <source_rank_in_scored_call>  (42) 
0

>  <source_current_task>  (42) 
close_aromatic_ring

>  <scenario>  (42) 
1 0 1 0 0 0

>  <current_task>  (42) 
no_task

>  <reason_to_skip>  (42) 
some_atom_counter_exceeded

$$$$

     RDKit          3D

 10 11  0  0  0  0  0  0  0  0999 V2000
  -27.8609   -7.5606  -31.1600 C   0  0  0  0  0  0  0  0  0  0  0  0
  -27.6012   -6.6215  -32.1138 N   0  0  0  0  0  0  0  0  0  0  0  0
  -27.7248   -8.9090  -31.1461 N   0  0  0  0  0  0  0  0  0  0  0  0
  -27.8300   -5.3151  -31.8693 C   0  0  0  0  0  0  0  0  0  0  0  0
  -28.3288   -4.9249  -30.6496 C   0  0  0  0  0  0  0  0  0  0  0  0
  -28.6041   -5.8580  -29.6557 C   0  0  0  0  0  0  0  0  0  0  0  0
  -28.3629   -7.1894  -29.9265 C   0  0  0  0  0  0  0  0  0  0  0  0
  -28.1245   -9.3941  -29.9460 C   0  0  0  0  0  0  0  0  0  0  0  0
  -28.5322   -8.3225  -29.1590 C   0  0  0  0  0  0  0  0  0  0  0  0
  -29.1377   -5.1723  -28.4258 C   0  0  0  0  0  0  0  0  0  0  0  0
  1  2  2  0
  1  3  1  0
  2  4  1  0
  4  5  2  0
  5  6  1  0
  6  7  2  0
  1  7  1  0
  3  8  1  0
  8  9  2  0
  7  9  1  0
  6 10  1  0
M  END
>  <name>  (43) 
Car Nac Nd0 Car Car Car Car Car Car C3r

>  <indices>  (43) 
[0, 1, 2]

>  <tasks>  (43) 
probe_placing close_aromatic_ring close_aromatic_ring close_aromatic_ring close_aromatic_ring ring_built build_to_Nd0 close_aromatic_ring

>  <prot_clashes>  (43) 
0

>  <NBS phar>  (43) 
0.2

>  <NBS_non-phar>  (43) 
0.7751019795735677

>  <NBS>  (43) 
0.9751019795735678

>  <source_stage>  (43) 
scored

>  <source_iter>  (43) 
6

>  <source_parent_mol>  (43) 
0

>  <source_scenario>  (43) 
1 0 1 0 0 0

>  <source_rank_in_scored_call>  (43) 
0

>  <source_current_task>  (43) 
close_aromatic_ring

>  <scenario>  (43) 
1 0 1 0 0 0

>  <current_task>  (43) 
no_task

>  <reason_to_skip>  (43) 
some_atom_counter_exceeded

$$$$

     RDKit          3D

 10 11  0  0  0  0  0  0  0  0999 V2000
  -27.8609   -7.5606  -31.1600 C   0  0  0  0  0  0  0  0  0  0  0  0
  -27.6012   -6.6215  -32.1138 N   0  0  0  0  0  0  0  0  0  0  0  0
  -27.7248   -8.9090  -31.1461 N   0  0  0  0  0  0  0  0  0  0  0  0
  -27.8300   -5.3151  -31.8693 C   0  0  0  0  0  0  0  0  0  0  0  0
  -28.3288   -4.9249  -30.6496 C   0  0  0  0  0  0  0  0  0  0  0  0
  -28.6041   -5.8580  -29.6557 C   0  0  0  0  0  0  0  0  0  0  0  0
  -28.3629   -7.1894  -29.9265 C   0  0  0  0  0  0  0  0  0  0  0  0
  -28.1245   -9.3941  -29.9460 C   0  0  0  0  0  0  0  0  0  0  0  0
  -28.5322   -8.3225  -29.1590 C   0  0  0  0  0  0  0  0  0  0  0  0
  -29.0989   -5.4678  -28.4466 O   0  0  0  0  0  0  0  0  0  0  0  0
  1  2  2  0
  1  3  1  0
  2  4  1  0
  4  5  2  0
  5  6  1  0
  6  7  2  0
  1  7  1  0
  3  8  1  0
  8  9  2  0
  7  9  1  0
  6 10  1  0
M  END
>  <name>  (44) 
Car Nac Nd0 Car Car Car Car Car Car O_d

>  <indices>  (44) 
[0, 1, 2]

>  <tasks>  (44) 
probe_placing close_aromatic_ring close_aromatic_ring close_aromatic_ring close_aromatic_ring ring_built build_to_Nd0 close_aromatic_ring

>  <prot_clashes>  (44) 
0

>  <NBS phar>  (44) 
0.2

>  <NBS_non-phar>  (44) 
0.7751019795735677

>  <NBS>  (44) 
0.9751019795735678

>  <source_stage>  (44) 
scored

>  <source_iter>  (44) 
6

>  <source_parent_mol>  (44) 
0

>  <source_scenario>  (44) 
1 0 1 0 0 0

>  <source_rank_in_scored_call>  (44) 
0

>  <source_current_task>  (44) 
close_aromatic_ring

>  <scenario>  (44) 
1 0 1 0 0 0

>  <current_task>  (44) 
no_task

>  <reason_to_skip>  (44) 
some_atom_counter_exceeded

$$$$

     RDKit          3D

 10 11  0  0  0  0  0  0  0  0999 V2000
  -27.8609   -7.5606  -31.1600 C   0  0  0  0  0  0  0  0  0  0  0  0
  -27.6012   -6.6215  -32.1138 N   0  0  0  0  0  0  0  0  0  0  0  0
  -27.7248   -8.9090  -31.1461 N   0  0  0  0  0  0  0  0  0  0  0  0
  -27.8300   -5.3151  -31.8693 C   0  0  0  0  0  0  0  0  0  0  0  0
  -28.3288   -4.9249  -30.6496 C   0  0  0  0  0  0  0  0  0  0  0  0
  -28.6041   -5.8580  -29.6557 C   0  0  0  0  0  0  0  0  0  0  0  0
  -28.3629   -7.1894  -29.9265 C   0  0  0  0  0  0  0  0  0  0  0  0
  -28.1245   -9.3941  -29.9460 C   0  0  0  0  0  0  0  0  0  0  0  0
  -28.5322   -8.3225  -29.1590 C   0  0  0  0  0  0  0  0  0  0  0  0
  -29.2536   -5.3458  -28.0685 Cl  0  0  0  0  0  0  0  0  0  0  0  0
  1  2  2  0
  1  3  1  0
  2  4  1  0
  4  5  2  0
  5  6  1  0
  6  7  2  0
  1  7  1  0
  3  8  1  0
  8  9  2  0
  7  9  1  0
  6 10  1  0
M  END
>  <name>  (45) 
Car Nac Nd0 Car Car Car Car Car Car Hal

>  <indices>  (45) 
[0, 1, 2]

>  <tasks>  (45) 
probe_placing close_aromatic_ring close_aromatic_ring close_aromatic_ring close_aromatic_ring ring_built build_to_Nd0 close_aromatic_ring

>  <prot_clashes>  (45) 
0

>  <NBS phar>  (45) 
0.2

>  <NBS_non-phar>  (45) 
0.7751019795735677

>  <NBS>  (45) 
0.9751019795735678

>  <source_stage>  (45) 
scored

>  <source_iter>  (45) 
6

>  <source_parent_mol>  (45) 
0

>  <source_scenario>  (45) 
1 0 1 0 0 0

>  <source_rank_in_scored_call>  (45) 
0

>  <source_current_task>  (45) 
close_aromatic_ring

>  <scenario>  (45) 
1 0 1 0 0 0

>  <current_task>  (45) 
no_task

>  <reason_to_skip>  (45) 
some_atom_counter_exceeded

$$$$

     RDKit          3D

 10 11  0  0  0  0  0  0  0  0999 V2000
  -27.8609   -7.5606  -31.1600 C   0  0  0  0  0  0  0  0  0  0  0  0
  -27.6012   -6.6215  -32.1138 N   0  0  0  0  0  0  0  0  0  0  0  0
  -27.7248   -8.9090  -31.1461 N   0  0  0  0  0  0  0  0  0  0  0  0
  -27.8300   -5.3151  -31.8693 C   0  0  0  0  0  0  0  0  0  0  0  0
  -28.3288   -4.9249  -30.6496 C   0  0  0  0  0  0  0  0  0  0  0  0
  -28.6041   -5.8580  -29.6557 C   0  0  0  0  0  0  0  0  0  0  0  0
  -28.3629   -7.1894  -29.9265 C   0  0  0  0  0  0  0  0  0  0  0  0
  -28.1245   -9.3941  -29.9460 C   0  0  0  0  0  0  0  0  0  0  0  0
  -28.5322   -8.3225  -29.1590 C   0  0  0  0  0  0  0  0  0  0  0  0
  -28.1267  -10.7125  -29.5723 N   0  0  0  0  0  0  0  0  0  0  0  0
  1  2  2  0
  1  3  1  0
  2  4  1  0
  4  5  2  0
  5  6  1  0
  6  7  2  0
  1  7  1  0
  3  8  1  0
  8  9  2  0
  7  9  1  0
  8 10  1  0
M  CHG  1  10   1
M  END
>  <name>  (46) 
Car Nac Nd0 Car Car Car Car Car Car Nd+

>  <indices>  (46) 
[0, 1, 2]

>  <tasks>  (46) 
probe_placing close_aromatic_ring close_aromatic_ring close_aromatic_ring close_aromatic_ring ring_built build_to_Nd0 close_aromatic_ring

>  <prot_clashes>  (46) 
0

>  <NBS phar>  (46) 
0.2

>  <NBS_non-phar>  (46) 
0.7751019795735677

>  <NBS>  (46) 
0.9751019795735678

>  <source_stage>  (46) 
scored

>  <source_iter>  (46) 
6

>  <source_parent_mol>  (46) 
0

>  <source_scenario>  (46) 
1 0 1 0 0 0

>  <source_rank_in_scored_call>  (46) 
0

>  <source_current_task>  (46) 
close_aromatic_ring

>  <scenario>  (46) 
1 0 1 0 0 0

>  <current_task>  (46) 
no_task

>  <reason_to_skip>  (46) 
some_atom_counter_exceeded

$$$$

     RDKit          3D

 10 11  0  0  0  0  0  0  0  0999 V2000
  -27.8609   -7.5606  -31.1600 C   0  0  0  0  0  0  0  0  0  0  0  0
  -27.6012   -6.6215  -32.1138 N   0  0  0  0  0  0  0  0  0  0  0  0
  -27.7248   -8.9090  -31.1461 N   0  0  0  0  0  0  0  0  0  0  0  0
  -27.8300   -5.3151  -31.8693 C   0  0  0  0  0  0  0  0  0  0  0  0
  -28.3288   -4.9249  -30.6496 C   0  0  0  0  0  0  0  0  0  0  0  0
  -28.6041   -5.8580  -29.6557 C   0  0  0  0  0  0  0  0  0  0  0  0
  -28.3629   -7.1894  -29.9265 C   0  0  0  0  0  0  0  0  0  0  0  0
  -28.1245   -9.3941  -29.9460 C   0  0  0  0  0  0  0  0  0  0  0  0
  -28.5322   -8.3225  -29.1590 C   0  0  0  0  0  0  0  0  0  0  0  0
  -28.1272  -11.0438  -29.4784 S   0  0  0  0  0  0  0  0  0  0  0  0
  1  2  2  0
  1  3  1  0
  2  4  1  0
  4  5  2  0
  5  6  1  0
  6  7  2  0
  1  7  1  0
  3  8  1  0
  8  9  2  0
  7  9  1  0
  8 10  1  0
M  END
>  <name>  (47) 
Car Nac Nd0 Car Car Car Car Car Car Sul

>  <indices>  (47) 
[0, 1, 2]

>  <tasks>  (47) 
probe_placing close_aromatic_ring close_aromatic_ring close_aromatic_ring close_aromatic_ring ring_built build_to_Nd0 close_aromatic_ring

>  <prot_clashes>  (47) 
0

>  <NBS phar>  (47) 
0.2

>  <NBS_non-phar>  (47) 
0.7751019795735677

>  <NBS>  (47) 
0.9751019795735678

>  <source_stage>  (47) 
scored

>  <source_iter>  (47) 
6

>  <source_parent_mol>  (47) 
0

>  <source_scenario>  (47) 
1 0 1 0 0 0

>  <source_rank_in_scored_call>  (47) 
0

>  <source_current_task>  (47) 
close_aromatic_ring

>  <scenario>  (47) 
1 0 1 0 0 0

>  <current_task>  (47) 
no_task

>  <reason_to_skip>  (47) 
some_atom_counter_exceeded

$$$$

     RDKit          3D

 10 11  0  0  0  0  0  0  0  0999 V2000
  -27.8609   -7.5606  -31.1600 C   0  0  0  0  0  0  0  0  0  0  0  0
  -27.6012   -6.6215  -32.1138 N   0  0  0  0  0  0  0  0  0  0  0  0
  -27.7248   -8.9090  -31.1461 N   0  0  0  0  0  0  0  0  0  0  0  0
  -27.8300   -5.3151  -31.8693 C   0  0  0  0  0  0  0  0  0  0  0  0
  -28.3288   -4.9249  -30.6496 C   0  0  0  0  0  0  0  0  0  0  0  0
  -28.6041   -5.8580  -29.6557 C   0  0  0  0  0  0  0  0  0  0  0  0
  -28.3629   -7.1894  -29.9265 C   0  0  0  0  0  0  0  0  0  0  0  0
  -28.1245   -9.3941  -29.9460 C   0  0  0  0  0  0  0  0  0  0  0  0
  -28.5322   -8.3225  -29.1590 C   0  0  0  0  0  0  0  0  0  0  0  0
  -28.2216  -10.9585  -29.2507 S   0  0  0  0  0  0  0  0  0  0  0  0
  1  2  2  0
  1  3  1  0
  2  4  1  0
  4  5  2  0
  5  6  1  0
  6  7  2  0
  1  7  1  0
  3  8  1  0
  8  9  2  0
  7  9  1  0
  8 10  1  0
M  END
>  <name>  (48) 
Car Nac Nd0 Car Car Car Car Car Car Sul

>  <indices>  (48) 
[0, 1, 2]

>  <tasks>  (48) 
probe_placing close_aromatic_ring close_aromatic_ring close_aromatic_ring close_aromatic_ring ring_built build_to_Nd0 close_aromatic_ring

>  <prot_clashes>  (48) 
0

>  <NBS phar>  (48) 
0.2

>  <NBS_non-phar>  (48) 
0.7751019795735677

>  <NBS>  (48) 
0.9751019795735678

>  <source_stage>  (48) 
scored

>  <source_iter>  (48) 
6

>  <source_parent_mol>  (48) 
0

>  <source_scenario>  (48) 
1 0 1 0 0 0

>  <source_rank_in_scored_call>  (48) 
0

>  <source_current_task>  (48) 
close_aromatic_ring

>  <scenario>  (48) 
1 0 1 0 0 0

>  <current_task>  (48) 
no_task

>  <reason_to_skip>  (48) 
some_atom_counter_exceeded

$$$$

     RDKit          3D

 10 11  0  0  0  0  0  0  0  0999 V2000
  -27.8609   -7.5606  -31.1600 C   0  0  0  0  0  0  0  0  0  0  0  0
  -27.6012   -6.6215  -32.1138 N   0  0  0  0  0  0  0  0  0  0  0  0
  -27.7248   -8.9090  -31.1461 N   0  0  0  0  0  0  0  0  0  0  0  0
  -27.8300   -5.3151  -31.8693 C   0  0  0  0  0  0  0  0  0  0  0  0
  -28.3288   -4.9249  -30.6496 C   0  0  0  0  0  0  0  0  0  0  0  0
  -28.6041   -5.8580  -29.6557 C   0  0  0  0  0  0  0  0  0  0  0  0
  -28.3629   -7.1894  -29.9265 C   0  0  0  0  0  0  0  0  0  0  0  0
  -28.1245   -9.3941  -29.9460 C   0  0  0  0  0  0  0  0  0  0  0  0
  -28.5322   -8.3225  -29.1590 C   0  0  0  0  0  0  0  0  0  0  0  0
  -28.0328  -11.0909  -29.7168 S   0  0  0  0  0  0  0  0  0  0  0  0
  1  2  2  0
  1  3  1  0
  2  4  1  0
  4  5  2  0
  5  6  1  0
  6  7  2  0
  1  7  1  0
  3  8  1  0
  8  9  2  0
  7  9  1  0
  8 10  1  0
M  END
>  <name>  (49) 
Car Nac Nd0 Car Car Car Car Car Car Sul

>  <indices>  (49) 
[0, 1, 2]

>  <tasks>  (49) 
probe_placing close_aromatic_ring close_aromatic_ring close_aromatic_ring close_aromatic_ring ring_built build_to_Nd0 close_aromatic_ring

>  <prot_clashes>  (49) 
0

>  <NBS phar>  (49) 
0.2

>  <NBS_non-phar>  (49) 
0.7751019795735677

>  <NBS>  (49) 
0.9751019795735678

>  <source_stage>  (49) 
scored

>  <source_iter>  (49) 
6

>  <source_parent_mol>  (49) 
0

>  <source_scenario>  (49) 
1 0 1 0 0 0

>  <source_rank_in_scored_call>  (49) 
0

>  <source_current_task>  (49) 
close_aromatic_ring

>  <scenario>  (49) 
1 0 1 0 0 0

>  <current_task>  (49) 
no_task

>  <reason_to_skip>  (49) 
some_atom_counter_exceeded

$$$$

     RDKit          3D

 10 11  0  0  0  0  0  0  0  0999 V2000
  -27.8609   -7.5606  -31.1600 C   0  0  0  0  0  0  0  0  0  0  0  0
  -27.6012   -6.6215  -32.1138 N   0  0  0  0  0  0  0  0  0  0  0  0
  -27.7248   -8.9090  -31.1461 N   0  0  0  0  0  0  0  0  0  0  0  0
  -27.8300   -5.3151  -31.8693 C   0  0  0  0  0  0  0  0  0  0  0  0
  -28.3288   -4.9249  -30.6496 C   0  0  0  0  0  0  0  0  0  0  0  0
  -28.6041   -5.8580  -29.6557 C   0  0  0  0  0  0  0  0  0  0  0  0
  -28.3629   -7.1894  -29.9265 C   0  0  0  0  0  0  0  0  0  0  0  0
  -28.1245   -9.3941  -29.9460 C   0  0  0  0  0  0  0  0  0  0  0  0
  -28.5322   -8.3225  -29.1590 C   0  0  0  0  0  0  0  0  0  0  0  0
  -28.1268  -10.7660  -29.5571 C   0  0  0  0  0  0  0  0  0  0  0  0
  1  2  2  0
  1  3  1  0
  2  4  1  0
  4  5  2  0
  5  6  1  0
  6  7  2  0
  1  7  1  0
  3  8  1  0
  8  9  2  0
  7  9  1  0
  8 10  1  0
M  END
>  <name>  (50) 
Car Nac Nd0 Car Car Car Car Car Car Csp

>  <indices>  (50) 
[0, 1, 2]

>  <tasks>  (50) 
probe_placing close_aromatic_ring close_aromatic_ring close_aromatic_ring close_aromatic_ring ring_built build_to_Nd0 close_aromatic_ring

>  <prot_clashes>  (50) 
0

>  <NBS phar>  (50) 
0.2

>  <NBS_non-phar>  (50) 
0.7751019795735677

>  <NBS>  (50) 
0.9751019795735678

>  <source_stage>  (50) 
scored

>  <source_iter>  (50) 
6

>  <source_parent_mol>  (50) 
0

>  <source_scenario>  (50) 
1 0 1 0 0 0

>  <source_rank_in_scored_call>  (50) 
0

>  <source_current_task>  (50) 
close_aromatic_ring

>  <scenario>  (50) 
1 0 1 0 0 0

>  <current_task>  (50) 
no_task

>  <reason_to_skip>  (50) 
some_atom_counter_exceeded

$$$$

     RDKit          3D

 10 11  0  0  0  0  0  0  0  0999 V2000
  -27.8609   -7.5606  -31.1600 C   0  0  0  0  0  0  0  0  0  0  0  0
  -27.6012   -6.6215  -32.1138 N   0  0  0  0  0  0  0  0  0  0  0  0
  -27.7248   -8.9090  -31.1461 N   0  0  0  0  0  0  0  0  0  0  0  0
  -27.8300   -5.3151  -31.8693 C   0  0  0  0  0  0  0  0  0  0  0  0
  -28.3288   -4.9249  -30.6496 C   0  0  0  0  0  0  0  0  0  0  0  0
  -28.6041   -5.8580  -29.6557 C   0  0  0  0  0  0  0  0  0  0  0  0
  -28.3629   -7.1894  -29.9265 C   0  0  0  0  0  0  0  0  0  0  0  0
  -28.1245   -9.3941  -29.9460 C   0  0  0  0  0  0  0  0  0  0  0  0
  -28.5322   -8.3225  -29.1590 C   0  0  0  0  0  0  0  0  0  0  0  0
  -28.1273  -11.0754  -29.4694 S   0  0  0  0  0  0  0  0  0  0  0  0
  1  2  2  0
  1  3  1  0
  2  4  1  0
  4  5  2  0
  5  6  1  0
  6  7  2  0
  1  7  1  0
  3  8  1  0
  8  9  2  0
  7  9  1  0
  8 10  1  0
M  END
>  <name>  (51) 
Car Nac Nd0 Car Car Car Car Car Car SO2

>  <indices>  (51) 
[0, 1, 2]

>  <tasks>  (51) 
probe_placing close_aromatic_ring close_aromatic_ring close_aromatic_ring close_aromatic_ring ring_built build_to_Nd0 close_aromatic_ring

>  <prot_clashes>  (51) 
0

>  <NBS phar>  (51) 
0.2

>  <NBS_non-phar>  (51) 
0.7751019795735677

>  <NBS>  (51) 
0.9751019795735678

>  <source_stage>  (51) 
scored

>  <source_iter>  (51) 
6

>  <source_parent_mol>  (51) 
0

>  <source_scenario>  (51) 
1 0 1 0 0 0

>  <source_rank_in_scored_call>  (51) 
0

>  <source_current_task>  (51) 
close_aromatic_ring

>  <scenario>  (51) 
1 0 1 0 0 0

>  <current_task>  (51) 
no_task

>  <reason_to_skip>  (51) 
some_atom_counter_exceeded

$$$$

     RDKit          3D

 10 11  0  0  0  0  0  0  0  0999 V2000
  -27.8609   -7.5606  -31.1600 C   0  0  0  0  0  0  0  0  0  0  0  0
  -27.6012   -6.6215  -32.1138 N   0  0  0  0  0  0  0  0  0  0  0  0
  -27.7248   -8.9090  -31.1461 N   0  0  0  0  0  0  0  0  0  0  0  0
  -27.8300   -5.3151  -31.8693 C   0  0  0  0  0  0  0  0  0  0  0  0
  -28.3288   -4.9249  -30.6496 C   0  0  0  0  0  0  0  0  0  0  0  0
  -28.6041   -5.8580  -29.6557 C   0  0  0  0  0  0  0  0  0  0  0  0
  -28.3629   -7.1894  -29.9265 C   0  0  0  0  0  0  0  0  0  0  0  0
  -28.1245   -9.3941  -29.9460 C   0  0  0  0  0  0  0  0  0  0  0  0
  -28.5322   -8.3225  -29.1590 C   0  0  0  0  0  0  0  0  0  0  0  0
  -28.1267  -10.7194  -29.5703 O   0  0  0  0  0  0  0  0  0  0  0  0
  1  2  2  0
  1  3  1  0
  2  4  1  0
  4  5  2  0
  5  6  1  0
  6  7  2  0
  1  7  1  0
  3  8  1  0
  8  9  2  0
  7  9  1  0
  8 10  1  0
M  END
>  <name>  (52) 
Car Nac Nd0 Car Car Car Car Car Car O_a

>  <indices>  (52) 
[0, 1, 2]

>  <tasks>  (52) 
probe_placing close_aromatic_ring close_aromatic_ring close_aromatic_ring close_aromatic_ring ring_built build_to_Nd0 close_aromatic_ring

>  <prot_clashes>  (52) 
0

>  <NBS phar>  (52) 
0.2

>  <NBS_non-phar>  (52) 
0.7751019795735677

>  <NBS>  (52) 
0.9751019795735678

>  <source_stage>  (52) 
scored

>  <source_iter>  (52) 
6

>  <source_parent_mol>  (52) 
0

>  <source_scenario>  (52) 
1 0 1 0 0 0

>  <source_rank_in_scored_call>  (52) 
0

>  <source_current_task>  (52) 
close_aromatic_ring

>  <scenario>  (52) 
1 0 1 0 0 0

>  <current_task>  (52) 
no_task

>  <reason_to_skip>  (52) 
some_atom_counter_exceeded

$$$$

     RDKit          3D

 10 11  0  0  0  0  0  0  0  0999 V2000
  -27.8609   -7.5606  -31.1600 C   0  0  0  0  0  0  0  0  0  0  0  0
  -27.6012   -6.6215  -32.1138 N   0  0  0  0  0  0  0  0  0  0  0  0
  -27.7248   -8.9090  -31.1461 N   0  0  0  0  0  0  0  0  0  0  0  0
  -27.8300   -5.3151  -31.8693 C   0  0  0  0  0  0  0  0  0  0  0  0
  -28.3288   -4.9249  -30.6496 C   0  0  0  0  0  0  0  0  0  0  0  0
  -28.6041   -5.8580  -29.6557 C   0  0  0  0  0  0  0  0  0  0  0  0
  -28.3629   -7.1894  -29.9265 C   0  0  0  0  0  0  0  0  0  0  0  0
  -28.1245   -9.3941  -29.9460 C   0  0  0  0  0  0  0  0  0  0  0  0
  -28.5322   -8.3225  -29.1590 C   0  0  0  0  0  0  0  0  0  0  0  0
  -28.2025  -10.6509  -29.3875 O   0  0  0  0  0  0  0  0  0  0  0  0
  1  2  2  0
  1  3  1  0
  2  4  1  0
  4  5  2  0
  5  6  1  0
  6  7  2  0
  1  7  1  0
  3  8  1  0
  8  9  2  0
  7  9  1  0
  8 10  1  0
M  END
>  <name>  (53) 
Car Nac Nd0 Car Car Car Car Car Car O_a

>  <indices>  (53) 
[0, 1, 2]

>  <tasks>  (53) 
probe_placing close_aromatic_ring close_aromatic_ring close_aromatic_ring close_aromatic_ring ring_built build_to_Nd0 close_aromatic_ring

>  <prot_clashes>  (53) 
0

>  <NBS phar>  (53) 
0.2

>  <NBS_non-phar>  (53) 
0.7751019795735677

>  <NBS>  (53) 
0.9751019795735678

>  <source_stage>  (53) 
scored

>  <source_iter>  (53) 
6

>  <source_parent_mol>  (53) 
0

>  <source_scenario>  (53) 
1 0 1 0 0 0

>  <source_rank_in_scored_call>  (53) 
0

>  <source_current_task>  (53) 
close_aromatic_ring

>  <scenario>  (53) 
1 0 1 0 0 0

>  <current_task>  (53) 
no_task

>  <reason_to_skip>  (53) 
some_atom_counter_exceeded

$$$$

     RDKit          3D

 10 11  0  0  0  0  0  0  0  0999 V2000
  -27.8609   -7.5606  -31.1600 C   0  0  0  0  0  0  0  0  0  0  0  0
  -27.6012   -6.6215  -32.1138 N   0  0  0  0  0  0  0  0  0  0  0  0
  -27.7248   -8.9090  -31.1461 N   0  0  0  0  0  0  0  0  0  0  0  0
  -27.8300   -5.3151  -31.8693 C   0  0  0  0  0  0  0  0  0  0  0  0
  -28.3288   -4.9249  -30.6496 C   0  0  0  0  0  0  0  0  0  0  0  0
  -28.6041   -5.8580  -29.6557 C   0  0  0  0  0  0  0  0  0  0  0  0
  -28.3629   -7.1894  -29.9265 C   0  0  0  0  0  0  0  0  0  0  0  0
  -28.1245   -9.3941  -29.9460 C   0  0  0  0  0  0  0  0  0  0  0  0
  -28.5322   -8.3225  -29.1590 C   0  0  0  0  0  0  0  0  0  0  0  0
  -28.0508  -10.7573  -29.7619 O   0  0  0  0  0  0  0  0  0  0  0  0
  1  2  2  0
  1  3  1  0
  2  4  1  0
  4  5  2  0
  5  6  1  0
  6  7  2  0
  1  7  1  0
  3  8  1  0
  8  9  2  0
  7  9  1  0
  8 10  1  0
M  END
>  <name>  (54) 
Car Nac Nd0 Car Car Car Car Car Car O_a

>  <indices>  (54) 
[0, 1, 2]

>  <tasks>  (54) 
probe_placing close_aromatic_ring close_aromatic_ring close_aromatic_ring close_aromatic_ring ring_built build_to_Nd0 close_aromatic_ring

>  <prot_clashes>  (54) 
0

>  <NBS phar>  (54) 
0.2

>  <NBS_non-phar>  (54) 
0.7751019795735677

>  <NBS>  (54) 
0.9751019795735678

>  <source_stage>  (54) 
scored

>  <source_iter>  (54) 
6

>  <source_parent_mol>  (54) 
0

>  <source_scenario>  (54) 
1 0 1 0 0 0

>  <source_rank_in_scored_call>  (54) 
0

>  <source_current_task>  (54) 
close_aromatic_ring

>  <scenario>  (54) 
1 0 1 0 0 0

>  <current_task>  (54) 
no_task

>  <reason_to_skip>  (54) 
some_atom_counter_exceeded

$$$$

     RDKit          3D

 10 11  0  0  0  0  0  0  0  0999 V2000
  -27.8609   -7.5606  -31.1600 C   0  0  0  0  0  0  0  0  0  0  0  0
  -27.6012   -6.6215  -32.1138 N   0  0  0  0  0  0  0  0  0  0  0  0
  -27.7248   -8.9090  -31.1461 N   0  0  0  0  0  0  0  0  0  0  0  0
  -27.8300   -5.3151  -31.8693 C   0  0  0  0  0  0  0  0  0  0  0  0
  -28.3288   -4.9249  -30.6496 C   0  0  0  0  0  0  0  0  0  0  0  0
  -28.6041   -5.8580  -29.6557 C   0  0  0  0  0  0  0  0  0  0  0  0
  -28.3629   -7.1894  -29.9265 C   0  0  0  0  0  0  0  0  0  0  0  0
  -28.1245   -9.3941  -29.9460 C   0  0  0  0  0  0  0  0  0  0  0  0
  -28.5322   -8.3225  -29.1590 C   0  0  0  0  0  0  0  0  0  0  0  0
  -28.1269  -10.8456  -29.5345 C   0  0  0  0  0  0  0  0  0  0  0  0
  1  2  2  0
  1  3  1  0
  2  4  1  0
  4  5  2  0
  5  6  1  0
  6  7  2  0
  1  7  1  0
  3  8  1  0
  8  9  2  0
  7  9  1  0
  8 10  1  0
M  END
>  <name>  (55) 
Car Nac Nd0 Car Car Car Car Car Car Cs3

>  <indices>  (55) 
[0, 1, 2]

>  <tasks>  (55) 
probe_placing close_aromatic_ring close_aromatic_ring close_aromatic_ring close_aromatic_ring ring_built build_to_Nd0 close_aromatic_ring

>  <prot_clashes>  (55) 
0

>  <NBS phar>  (55) 
0.2

>  <NBS_non-phar>  (55) 
0.7751019795735677

>  <NBS>  (55) 
0.9751019795735678

>  <source_stage>  (55) 
scored

>  <source_iter>  (55) 
6

>  <source_parent_mol>  (55) 
0

>  <source_scenario>  (55) 
1 0 1 0 0 0

>  <source_rank_in_scored_call>  (55) 
0

>  <source_current_task>  (55) 
close_aromatic_ring

>  <scenario>  (55) 
1 0 1 0 0 0

>  <current_task>  (55) 
no_task

>  <reason_to_skip>  (55) 
some_atom_counter_exceeded

$$$$

     RDKit          3D

 10 11  0  0  0  0  0  0  0  0999 V2000
  -27.8609   -7.5606  -31.1600 C   0  0  0  0  0  0  0  0  0  0  0  0
  -27.6012   -6.6215  -32.1138 N   0  0  0  0  0  0  0  0  0  0  0  0
  -27.7248   -8.9090  -31.1461 N   0  0  0  0  0  0  0  0  0  0  0  0
  -27.8300   -5.3151  -31.8693 C   0  0  0  0  0  0  0  0  0  0  0  0
  -28.3288   -4.9249  -30.6496 C   0  0  0  0  0  0  0  0  0  0  0  0
  -28.6041   -5.8580  -29.6557 C   0  0  0  0  0  0  0  0  0  0  0  0
  -28.3629   -7.1894  -29.9265 C   0  0  0  0  0  0  0  0  0  0  0  0
  -28.1245   -9.3941  -29.9460 C   0  0  0  0  0  0  0  0  0  0  0  0
  -28.5322   -8.3225  -29.1590 C   0  0  0  0  0  0  0  0  0  0  0  0
  -28.1269  -10.8428  -29.5353 C   0  0  0  0  0  0  0  0  0  0  0  0
  1  2  2  0
  1  3  1  0
  2  4  1  0
  4  5  2  0
  5  6  1  0
  6  7  2  0
  1  7  1  0
  3  8  1  0
  8  9  2  0
  7  9  1  0
  8 10  1  0
M  END
>  <name>  (56) 
Car Nac Nd0 Car Car Car Car Car Car C3r

>  <indices>  (56) 
[0, 1, 2]

>  <tasks>  (56) 
probe_placing close_aromatic_ring close_aromatic_ring close_aromatic_ring close_aromatic_ring ring_built build_to_Nd0 close_aromatic_ring

>  <prot_clashes>  (56) 
0

>  <NBS phar>  (56) 
0.2

>  <NBS_non-phar>  (56) 
0.7751019795735677

>  <NBS>  (56) 
0.9751019795735678

>  <source_stage>  (56) 
scored

>  <source_iter>  (56) 
6

>  <source_parent_mol>  (56) 
0

>  <source_scenario>  (56) 
1 0 1 0 0 0

>  <source_rank_in_scored_call>  (56) 
0

>  <source_current_task>  (56) 
close_aromatic_ring

>  <scenario>  (56) 
1 0 1 0 0 0

>  <current_task>  (56) 
no_task

>  <reason_to_skip>  (56) 
some_atom_counter_exceeded

$$$$

     RDKit          3D

 10 11  0  0  0  0  0  0  0  0999 V2000
  -27.8609   -7.5606  -31.1600 C   0  0  0  0  0  0  0  0  0  0  0  0
  -27.6012   -6.6215  -32.1138 N   0  0  0  0  0  0  0  0  0  0  0  0
  -27.7248   -8.9090  -31.1461 N   0  0  0  0  0  0  0  0  0  0  0  0
  -27.8300   -5.3151  -31.8693 C   0  0  0  0  0  0  0  0  0  0  0  0
  -28.3288   -4.9249  -30.6496 C   0  0  0  0  0  0  0  0  0  0  0  0
  -28.6041   -5.8580  -29.6557 C   0  0  0  0  0  0  0  0  0  0  0  0
  -28.3629   -7.1894  -29.9265 C   0  0  0  0  0  0  0  0  0  0  0  0
  -28.1245   -9.3941  -29.9460 C   0  0  0  0  0  0  0  0  0  0  0  0
  -28.5322   -8.3225  -29.1590 C   0  0  0  0  0  0  0  0  0  0  0  0
  -28.2098  -10.7679  -29.3354 C   0  0  0  0  0  0  0  0  0  0  0  0
  1  2  2  0
  1  3  1  0
  2  4  1  0
  4  5  2  0
  5  6  1  0
  6  7  2  0
  1  7  1  0
  3  8  1  0
  8  9  2  0
  7  9  1  0
  8 10  1  0
M  END
>  <name>  (57) 
Car Nac Nd0 Car Car Car Car Car Car C3r

>  <indices>  (57) 
[0, 1, 2]

>  <tasks>  (57) 
probe_placing close_aromatic_ring close_aromatic_ring close_aromatic_ring close_aromatic_ring ring_built build_to_Nd0 close_aromatic_ring

>  <prot_clashes>  (57) 
0

>  <NBS phar>  (57) 
0.2

>  <NBS_non-phar>  (57) 
0.7751019795735677

>  <NBS>  (57) 
0.9751019795735678

>  <source_stage>  (57) 
scored

>  <source_iter>  (57) 
6

>  <source_parent_mol>  (57) 
0

>  <source_scenario>  (57) 
1 0 1 0 0 0

>  <source_rank_in_scored_call>  (57) 
0

>  <source_current_task>  (57) 
close_aromatic_ring

>  <scenario>  (57) 
1 0 1 0 0 0

>  <current_task>  (57) 
no_task

>  <reason_to_skip>  (57) 
some_atom_counter_exceeded

$$$$

     RDKit          3D

 10 11  0  0  0  0  0  0  0  0999 V2000
  -27.8609   -7.5606  -31.1600 C   0  0  0  0  0  0  0  0  0  0  0  0
  -27.6012   -6.6215  -32.1138 N   0  0  0  0  0  0  0  0  0  0  0  0
  -27.7248   -8.9090  -31.1461 N   0  0  0  0  0  0  0  0  0  0  0  0
  -27.8300   -5.3151  -31.8693 C   0  0  0  0  0  0  0  0  0  0  0  0
  -28.3288   -4.9249  -30.6496 C   0  0  0  0  0  0  0  0  0  0  0  0
  -28.6041   -5.8580  -29.6557 C   0  0  0  0  0  0  0  0  0  0  0  0
  -28.3629   -7.1894  -29.9265 C   0  0  0  0  0  0  0  0  0  0  0  0
  -28.1245   -9.3941  -29.9460 C   0  0  0  0  0  0  0  0  0  0  0  0
  -28.5322   -8.3225  -29.1590 C   0  0  0  0  0  0  0  0  0  0  0  0
  -28.0439  -10.8842  -29.7447 C   0  0  0  0  0  0  0  0  0  0  0  0
  1  2  2  0
  1  3  1  0
  2  4  1  0
  4  5  2  0
  5  6  1  0
  6  7  2  0
  1  7  1  0
  3  8  1  0
  8  9  2  0
  7  9  1  0
  8 10  1  0
M  END
>  <name>  (58) 
Car Nac Nd0 Car Car Car Car Car Car C3r

>  <indices>  (58) 
[0, 1, 2]

>  <tasks>  (58) 
probe_placing close_aromatic_ring close_aromatic_ring close_aromatic_ring close_aromatic_ring ring_built build_to_Nd0 close_aromatic_ring

>  <prot_clashes>  (58) 
0

>  <NBS phar>  (58) 
0.2

>  <NBS_non-phar>  (58) 
0.7751019795735677

>  <NBS>  (58) 
0.9751019795735678

>  <source_stage>  (58) 
scored

>  <source_iter>  (58) 
6

>  <source_parent_mol>  (58) 
0

>  <source_scenario>  (58) 
1 0 1 0 0 0

>  <source_rank_in_scored_call>  (58) 
0

>  <source_current_task>  (58) 
close_aromatic_ring

>  <scenario>  (58) 
1 0 1 0 0 0

>  <current_task>  (58) 
no_task

>  <reason_to_skip>  (58) 
some_atom_counter_exceeded

$$$$

     RDKit          3D

 10 11  0  0  0  0  0  0  0  0999 V2000
  -27.8609   -7.5606  -31.1600 C   0  0  0  0  0  0  0  0  0  0  0  0
  -27.6012   -6.6215  -32.1138 N   0  0  0  0  0  0  0  0  0  0  0  0
  -27.7248   -8.9090  -31.1461 N   0  0  0  0  0  0  0  0  0  0  0  0
  -27.8300   -5.3151  -31.8693 C   0  0  0  0  0  0  0  0  0  0  0  0
  -28.3288   -4.9249  -30.6496 C   0  0  0  0  0  0  0  0  0  0  0  0
  -28.6041   -5.8580  -29.6557 C   0  0  0  0  0  0  0  0  0  0  0  0
  -28.3629   -7.1894  -29.9265 C   0  0  0  0  0  0  0  0  0  0  0  0
  -28.1245   -9.3941  -29.9460 C   0  0  0  0  0  0  0  0  0  0  0  0
  -28.5322   -8.3225  -29.1590 C   0  0  0  0  0  0  0  0  0  0  0  0
  -28.1267  -10.7058  -29.5742 O   0  0  0  0  0  0  0  0  0  0  0  0
  1  2  2  0
  1  3  1  0
  2  4  1  0
  4  5  2  0
  5  6  1  0
  6  7  2  0
  1  7  1  0
  3  8  1  0
  8  9  2  0
  7  9  1  0
  8 10  1  0
M  END
>  <name>  (59) 
Car Nac Nd0 Car Car Car Car Car Car O_d

>  <indices>  (59) 
[0, 1, 2]

>  <tasks>  (59) 
probe_placing close_aromatic_ring close_aromatic_ring close_aromatic_ring close_aromatic_ring ring_built build_to_Nd0 close_aromatic_ring

>  <prot_clashes>  (59) 
0

>  <NBS phar>  (59) 
0.2

>  <NBS_non-phar>  (59) 
0.7751019795735677

>  <NBS>  (59) 
0.9751019795735678

>  <source_stage>  (59) 
scored

>  <source_iter>  (59) 
6

>  <source_parent_mol>  (59) 
0

>  <source_scenario>  (59) 
1 0 1 0 0 0

>  <source_rank_in_scored_call>  (59) 
0

>  <source_current_task>  (59) 
close_aromatic_ring

>  <scenario>  (59) 
1 0 1 0 0 0

>  <current_task>  (59) 
no_task

>  <reason_to_skip>  (59) 
some_atom_counter_exceeded

$$$$

     RDKit          3D

 10 11  0  0  0  0  0  0  0  0999 V2000
  -27.8609   -7.5606  -31.1600 C   0  0  0  0  0  0  0  0  0  0  0  0
  -27.6012   -6.6215  -32.1138 N   0  0  0  0  0  0  0  0  0  0  0  0
  -27.7248   -8.9090  -31.1461 N   0  0  0  0  0  0  0  0  0  0  0  0
  -27.8300   -5.3151  -31.8693 C   0  0  0  0  0  0  0  0  0  0  0  0
  -28.3288   -4.9249  -30.6496 C   0  0  0  0  0  0  0  0  0  0  0  0
  -28.6041   -5.8580  -29.6557 C   0  0  0  0  0  0  0  0  0  0  0  0
  -28.3629   -7.1894  -29.9265 C   0  0  0  0  0  0  0  0  0  0  0  0
  -28.1245   -9.3941  -29.9460 C   0  0  0  0  0  0  0  0  0  0  0  0
  -28.5322   -8.3225  -29.1590 C   0  0  0  0  0  0  0  0  0  0  0  0
  -28.1273  -11.1160  -29.4579 Cl  0  0  0  0  0  0  0  0  0  0  0  0
  1  2  2  0
  1  3  1  0
  2  4  1  0
  4  5  2  0
  5  6  1  0
  6  7  2  0
  1  7  1  0
  3  8  1  0
  8  9  2  0
  7  9  1  0
  8 10  1  0
M  END
>  <name>  (60) 
Car Nac Nd0 Car Car Car Car Car Car Hal

>  <indices>  (60) 
[0, 1, 2]

>  <tasks>  (60) 
probe_placing close_aromatic_ring close_aromatic_ring close_aromatic_ring close_aromatic_ring ring_built build_to_Nd0 close_aromatic_ring

>  <prot_clashes>  (60) 
0

>  <NBS phar>  (60) 
0.2

>  <NBS_non-phar>  (60) 
0.7751019795735677

>  <NBS>  (60) 
0.9751019795735678

>  <source_stage>  (60) 
scored

>  <source_iter>  (60) 
6

>  <source_parent_mol>  (60) 
0

>  <source_scenario>  (60) 
1 0 1 0 0 0

>  <source_rank_in_scored_call>  (60) 
0

>  <source_current_task>  (60) 
close_aromatic_ring

>  <scenario>  (60) 
1 0 1 0 0 0

>  <current_task>  (60) 
no_task

>  <reason_to_skip>  (60) 
some_atom_counter_exceeded

$$$$

     RDKit          3D

 10 11  0  0  0  0  0  0  0  0999 V2000
  -27.8609   -7.5606  -31.1600 C   0  0  0  0  0  0  0  0  0  0  0  0
  -27.6012   -6.6215  -32.1138 N   0  0  0  0  0  0  0  0  0  0  0  0
  -27.7248   -8.9090  -31.1461 N   0  0  0  0  0  0  0  0  0  0  0  0
  -27.8300   -5.3151  -31.8693 C   0  0  0  0  0  0  0  0  0  0  0  0
  -28.3288   -4.9249  -30.6496 C   0  0  0  0  0  0  0  0  0  0  0  0
  -28.6041   -5.8580  -29.6557 C   0  0  0  0  0  0  0  0  0  0  0  0
  -28.3629   -7.1894  -29.9265 C   0  0  0  0  0  0  0  0  0  0  0  0
  -28.1245   -9.3941  -29.9460 C   0  0  0  0  0  0  0  0  0  0  0  0
  -28.5322   -8.3225  -29.1590 C   0  0  0  0  0  0  0  0  0  0  0  0
  -29.0079   -8.3810  -27.8752 N   0  0  0  0  0  0  0  0  0  0  0  0
  1  2  2  0
  1  3  1  0
  2  4  1  0
  4  5  2  0
  5  6  1  0
  6  7  2  0
  1  7  1  0
  3  8  1  0
  8  9  2  0
  7  9  1  0
  9 10  1  0
M  CHG  1  10   1
M  END
>  <name>  (61) 
Car Nac Nd0 Car Car Car Car Car Car Nd+

>  <indices>  (61) 
[0, 1, 2]

>  <tasks>  (61) 
probe_placing close_aromatic_ring close_aromatic_ring close_aromatic_ring close_aromatic_ring ring_built build_to_Nd0 close_aromatic_ring

>  <prot_clashes>  (61) 
0

>  <NBS phar>  (61) 
0.2

>  <NBS_non-phar>  (61) 
0.7751019795735677

>  <NBS>  (61) 
0.9751019795735678

>  <source_stage>  (61) 
scored

>  <source_iter>  (61) 
6

>  <source_parent_mol>  (61) 
0

>  <source_scenario>  (61) 
1 0 1 0 0 0

>  <source_rank_in_scored_call>  (61) 
0

>  <source_current_task>  (61) 
close_aromatic_ring

>  <scenario>  (61) 
1 0 1 0 0 0

>  <current_task>  (61) 
no_task

>  <reason_to_skip>  (61) 
some_atom_counter_exceeded

$$$$

     RDKit          3D

 10 11  0  0  0  0  0  0  0  0999 V2000
  -27.8609   -7.5606  -31.1600 C   0  0  0  0  0  0  0  0  0  0  0  0
  -27.6012   -6.6215  -32.1138 N   0  0  0  0  0  0  0  0  0  0  0  0
  -27.7248   -8.9090  -31.1461 N   0  0  0  0  0  0  0  0  0  0  0  0
  -27.8300   -5.3151  -31.8693 C   0  0  0  0  0  0  0  0  0  0  0  0
  -28.3288   -4.9249  -30.6496 C   0  0  0  0  0  0  0  0  0  0  0  0
  -28.6041   -5.8580  -29.6557 C   0  0  0  0  0  0  0  0  0  0  0  0
  -28.3629   -7.1894  -29.9265 C   0  0  0  0  0  0  0  0  0  0  0  0
  -28.1245   -9.3941  -29.9460 C   0  0  0  0  0  0  0  0  0  0  0  0
  -28.5322   -8.3225  -29.1590 C   0  0  0  0  0  0  0  0  0  0  0  0
  -29.1274   -8.3956  -27.5526 S   0  0  0  0  0  0  0  0  0  0  0  0
  1  2  2  0
  1  3  1  0
  2  4  1  0
  4  5  2  0
  5  6  1  0
  6  7  2  0
  1  7  1  0
  3  8  1  0
  8  9  2  0
  7  9  1  0
  9 10  1  0
M  END
>  <name>  (62) 
Car Nac Nd0 Car Car Car Car Car Car Sul

>  <indices>  (62) 
[0, 1, 2]

>  <tasks>  (62) 
probe_placing close_aromatic_ring close_aromatic_ring close_aromatic_ring close_aromatic_ring ring_built build_to_Nd0 close_aromatic_ring

>  <prot_clashes>  (62) 
0

>  <NBS phar>  (62) 
0.2

>  <NBS_non-phar>  (62) 
0.7751019795735677

>  <NBS>  (62) 
0.9751019795735678

>  <source_stage>  (62) 
scored

>  <source_iter>  (62) 
6

>  <source_parent_mol>  (62) 
0

>  <source_scenario>  (62) 
1 0 1 0 0 0

>  <source_rank_in_scored_call>  (62) 
0

>  <source_current_task>  (62) 
close_aromatic_ring

>  <scenario>  (62) 
1 0 1 0 0 0

>  <current_task>  (62) 
no_task

>  <reason_to_skip>  (62) 
some_atom_counter_exceeded

$$$$

     RDKit          3D

 10 11  0  0  0  0  0  0  0  0999 V2000
  -27.8609   -7.5606  -31.1600 C   0  0  0  0  0  0  0  0  0  0  0  0
  -27.6012   -6.6215  -32.1138 N   0  0  0  0  0  0  0  0  0  0  0  0
  -27.7248   -8.9090  -31.1461 N   0  0  0  0  0  0  0  0  0  0  0  0
  -27.8300   -5.3151  -31.8693 C   0  0  0  0  0  0  0  0  0  0  0  0
  -28.3288   -4.9249  -30.6496 C   0  0  0  0  0  0  0  0  0  0  0  0
  -28.6041   -5.8580  -29.6557 C   0  0  0  0  0  0  0  0  0  0  0  0
  -28.3629   -7.1894  -29.9265 C   0  0  0  0  0  0  0  0  0  0  0  0
  -28.1245   -9.3941  -29.9460 C   0  0  0  0  0  0  0  0  0  0  0  0
  -28.5322   -8.3225  -29.1590 C   0  0  0  0  0  0  0  0  0  0  0  0
  -29.1478   -8.1444  -27.5686 S   0  0  0  0  0  0  0  0  0  0  0  0
  1  2  2  0
  1  3  1  0
  2  4  1  0
  4  5  2  0
  5  6  1  0
  6  7  2  0
  1  7  1  0
  3  8  1  0
  8  9  2  0
  7  9  1  0
  9 10  1  0
M  END
>  <name>  (63) 
Car Nac Nd0 Car Car Car Car Car Car Sul

>  <indices>  (63) 
[0, 1, 2]

>  <tasks>  (63) 
probe_placing close_aromatic_ring close_aromatic_ring close_aromatic_ring close_aromatic_ring ring_built build_to_Nd0 close_aromatic_ring

>  <prot_clashes>  (63) 
0

>  <NBS phar>  (63) 
0.2

>  <NBS_non-phar>  (63) 
0.7751019795735677

>  <NBS>  (63) 
0.9751019795735678

>  <source_stage>  (63) 
scored

>  <source_iter>  (63) 
6

>  <source_parent_mol>  (63) 
0

>  <source_scenario>  (63) 
1 0 1 0 0 0

>  <source_rank_in_scored_call>  (63) 
0

>  <source_current_task>  (63) 
close_aromatic_ring

>  <scenario>  (63) 
1 0 1 0 0 0

>  <current_task>  (63) 
no_task

>  <reason_to_skip>  (63) 
some_atom_counter_exceeded

$$$$

     RDKit          3D

 10 11  0  0  0  0  0  0  0  0999 V2000
  -27.8609   -7.5606  -31.1600 C   0  0  0  0  0  0  0  0  0  0  0  0
  -27.6012   -6.6215  -32.1138 N   0  0  0  0  0  0  0  0  0  0  0  0
  -27.7248   -8.9090  -31.1461 N   0  0  0  0  0  0  0  0  0  0  0  0
  -27.8300   -5.3151  -31.8693 C   0  0  0  0  0  0  0  0  0  0  0  0
  -28.3288   -4.9249  -30.6496 C   0  0  0  0  0  0  0  0  0  0  0  0
  -28.6041   -5.8580  -29.6557 C   0  0  0  0  0  0  0  0  0  0  0  0
  -28.3629   -7.1894  -29.9265 C   0  0  0  0  0  0  0  0  0  0  0  0
  -28.1245   -9.3941  -29.9460 C   0  0  0  0  0  0  0  0  0  0  0  0
  -28.5322   -8.3225  -29.1590 C   0  0  0  0  0  0  0  0  0  0  0  0
  -29.0942   -8.6453  -27.5715 S   0  0  0  0  0  0  0  0  0  0  0  0
  1  2  2  0
  1  3  1  0
  2  4  1  0
  4  5  2  0
  5  6  1  0
  6  7  2  0
  1  7  1  0
  3  8  1  0
  8  9  2  0
  7  9  1  0
  9 10  1  0
M  END
>  <name>  (64) 
Car Nac Nd0 Car Car Car Car Car Car Sul

>  <indices>  (64) 
[0, 1, 2]

>  <tasks>  (64) 
probe_placing close_aromatic_ring close_aromatic_ring close_aromatic_ring close_aromatic_ring ring_built build_to_Nd0 close_aromatic_ring

>  <prot_clashes>  (64) 
0

>  <NBS phar>  (64) 
0.2

>  <NBS_non-phar>  (64) 
0.7751019795735677

>  <NBS>  (64) 
0.9751019795735678

>  <source_stage>  (64) 
scored

>  <source_iter>  (64) 
6

>  <source_parent_mol>  (64) 
0

>  <source_scenario>  (64) 
1 0 1 0 0 0

>  <source_rank_in_scored_call>  (64) 
0

>  <source_current_task>  (64) 
close_aromatic_ring

>  <scenario>  (64) 
1 0 1 0 0 0

>  <current_task>  (64) 
no_task

>  <reason_to_skip>  (64) 
some_atom_counter_exceeded

$$$$

     RDKit          3D

 10 11  0  0  0  0  0  0  0  0999 V2000
  -27.8609   -7.5606  -31.1600 C   0  0  0  0  0  0  0  0  0  0  0  0
  -27.6012   -6.6215  -32.1138 N   0  0  0  0  0  0  0  0  0  0  0  0
  -27.7248   -8.9090  -31.1461 N   0  0  0  0  0  0  0  0  0  0  0  0
  -27.8300   -5.3151  -31.8693 C   0  0  0  0  0  0  0  0  0  0  0  0
  -28.3288   -4.9249  -30.6496 C   0  0  0  0  0  0  0  0  0  0  0  0
  -28.6041   -5.8580  -29.6557 C   0  0  0  0  0  0  0  0  0  0  0  0
  -28.3629   -7.1894  -29.9265 C   0  0  0  0  0  0  0  0  0  0  0  0
  -28.1245   -9.3941  -29.9460 C   0  0  0  0  0  0  0  0  0  0  0  0
  -28.5322   -8.3225  -29.1590 C   0  0  0  0  0  0  0  0  0  0  0  0
  -29.0272   -8.3833  -27.8231 C   0  0  0  0  0  0  0  0  0  0  0  0
  1  2  2  0
  1  3  1  0
  2  4  1  0
  4  5  2  0
  5  6  1  0
  6  7  2  0
  1  7  1  0
  3  8  1  0
  8  9  2  0
  7  9  1  0
  9 10  1  0
M  END
>  <name>  (65) 
Car Nac Nd0 Car Car Car Car Car Car Csp

>  <indices>  (65) 
[0, 1, 2]

>  <tasks>  (65) 
probe_placing close_aromatic_ring close_aromatic_ring close_aromatic_ring close_aromatic_ring ring_built build_to_Nd0 close_aromatic_ring

>  <prot_clashes>  (65) 
0

>  <NBS phar>  (65) 
0.2

>  <NBS_non-phar>  (65) 
0.7751019795735677

>  <NBS>  (65) 
0.9751019795735678

>  <source_stage>  (65) 
scored

>  <source_iter>  (65) 
6

>  <source_parent_mol>  (65) 
0

>  <source_scenario>  (65) 
1 0 1 0 0 0

>  <source_rank_in_scored_call>  (65) 
0

>  <source_current_task>  (65) 
close_aromatic_ring

>  <scenario>  (65) 
1 0 1 0 0 0

>  <current_task>  (65) 
no_task

>  <reason_to_skip>  (65) 
some_atom_counter_exceeded

$$$$

     RDKit          3D

 10 11  0  0  0  0  0  0  0  0999 V2000
  -27.8609   -7.5606  -31.1600 C   0  0  0  0  0  0  0  0  0  0  0  0
  -27.6012   -6.6215  -32.1138 N   0  0  0  0  0  0  0  0  0  0  0  0
  -27.7248   -8.9090  -31.1461 N   0  0  0  0  0  0  0  0  0  0  0  0
  -27.8300   -5.3151  -31.8693 C   0  0  0  0  0  0  0  0  0  0  0  0
  -28.3288   -4.9249  -30.6496 C   0  0  0  0  0  0  0  0  0  0  0  0
  -28.6041   -5.8580  -29.6557 C   0  0  0  0  0  0  0  0  0  0  0  0
  -28.3629   -7.1894  -29.9265 C   0  0  0  0  0  0  0  0  0  0  0  0
  -28.1245   -9.3941  -29.9460 C   0  0  0  0  0  0  0  0  0  0  0  0
  -28.5322   -8.3225  -29.1590 C   0  0  0  0  0  0  0  0  0  0  0  0
  -29.1389   -8.3970  -27.5218 S   0  0  0  0  0  0  0  0  0  0  0  0
  1  2  2  0
  1  3  1  0
  2  4  1  0
  4  5  2  0
  5  6  1  0
  6  7  2  0
  1  7  1  0
  3  8  1  0
  8  9  2  0
  7  9  1  0
  9 10  1  0
M  END
>  <name>  (66) 
Car Nac Nd0 Car Car Car Car Car Car SO2

>  <indices>  (66) 
[0, 1, 2]

>  <tasks>  (66) 
probe_placing close_aromatic_ring close_aromatic_ring close_aromatic_ring close_aromatic_ring ring_built build_to_Nd0 close_aromatic_ring

>  <prot_clashes>  (66) 
0

>  <NBS phar>  (66) 
0.2

>  <NBS_non-phar>  (66) 
0.7751019795735677

>  <NBS>  (66) 
0.9751019795735678

>  <source_stage>  (66) 
scored

>  <source_iter>  (66) 
6

>  <source_parent_mol>  (66) 
0

>  <source_scenario>  (66) 
1 0 1 0 0 0

>  <source_rank_in_scored_call>  (66) 
0

>  <source_current_task>  (66) 
close_aromatic_ring

>  <scenario>  (66) 
1 0 1 0 0 0

>  <current_task>  (66) 
no_task

>  <reason_to_skip>  (66) 
some_atom_counter_exceeded

$$$$

     RDKit          3D

 10 11  0  0  0  0  0  0  0  0999 V2000
  -27.8609   -7.5606  -31.1600 C   0  0  0  0  0  0  0  0  0  0  0  0
  -27.6012   -6.6215  -32.1138 N   0  0  0  0  0  0  0  0  0  0  0  0
  -27.7248   -8.9090  -31.1461 N   0  0  0  0  0  0  0  0  0  0  0  0
  -27.8300   -5.3151  -31.8693 C   0  0  0  0  0  0  0  0  0  0  0  0
  -28.3288   -4.9249  -30.6496 C   0  0  0  0  0  0  0  0  0  0  0  0
  -28.6041   -5.8580  -29.6557 C   0  0  0  0  0  0  0  0  0  0  0  0
  -28.3629   -7.1894  -29.9265 C   0  0  0  0  0  0  0  0  0  0  0  0
  -28.1245   -9.3941  -29.9460 C   0  0  0  0  0  0  0  0  0  0  0  0
  -28.5322   -8.3225  -29.1590 C   0  0  0  0  0  0  0  0  0  0  0  0
  -29.0104   -8.3813  -27.8685 O   0  0  0  0  0  0  0  0  0  0  0  0
  1  2  2  0
  1  3  1  0
  2  4  1  0
  4  5  2  0
  5  6  1  0
  6  7  2  0
  1  7  1  0
  3  8  1  0
  8  9  2  0
  7  9  1  0
  9 10  1  0
M  END
>  <name>  (67) 
Car Nac Nd0 Car Car Car Car Car Car O_a

>  <indices>  (67) 
[0, 1, 2]

>  <tasks>  (67) 
probe_placing close_aromatic_ring close_aromatic_ring close_aromatic_ring close_aromatic_ring ring_built build_to_Nd0 close_aromatic_ring

>  <prot_clashes>  (67) 
0

>  <NBS phar>  (67) 
0.2

>  <NBS_non-phar>  (67) 
0.7751019795735677

>  <NBS>  (67) 
0.9751019795735678

>  <source_stage>  (67) 
scored

>  <source_iter>  (67) 
6

>  <source_parent_mol>  (67) 
0

>  <source_scenario>  (67) 
1 0 1 0 0 0

>  <source_rank_in_scored_call>  (67) 
0

>  <source_current_task>  (67) 
close_aromatic_ring

>  <scenario>  (67) 
1 0 1 0 0 0

>  <current_task>  (67) 
no_task

>  <reason_to_skip>  (67) 
some_atom_counter_exceeded

$$$$

     RDKit          3D

 10 11  0  0  0  0  0  0  0  0999 V2000
  -27.8609   -7.5606  -31.1600 C   0  0  0  0  0  0  0  0  0  0  0  0
  -27.6012   -6.6215  -32.1138 N   0  0  0  0  0  0  0  0  0  0  0  0
  -27.7248   -8.9090  -31.1461 N   0  0  0  0  0  0  0  0  0  0  0  0
  -27.8300   -5.3151  -31.8693 C   0  0  0  0  0  0  0  0  0  0  0  0
  -28.3288   -4.9249  -30.6496 C   0  0  0  0  0  0  0  0  0  0  0  0
  -28.6041   -5.8580  -29.6557 C   0  0  0  0  0  0  0  0  0  0  0  0
  -28.3629   -7.1894  -29.9265 C   0  0  0  0  0  0  0  0  0  0  0  0
  -28.1245   -9.3941  -29.9460 C   0  0  0  0  0  0  0  0  0  0  0  0
  -28.5322   -8.3225  -29.1590 C   0  0  0  0  0  0  0  0  0  0  0  0
  -29.0267   -8.1794  -27.8813 O   0  0  0  0  0  0  0  0  0  0  0  0
  1  2  2  0
  1  3  1  0
  2  4  1  0
  4  5  2  0
  5  6  1  0
  6  7  2  0
  1  7  1  0
  3  8  1  0
  8  9  2  0
  7  9  1  0
  9 10  1  0
M  END
>  <name>  (68) 
Car Nac Nd0 Car Car Car Car Car Car O_a

>  <indices>  (68) 
[0, 1, 2]

>  <tasks>  (68) 
probe_placing close_aromatic_ring close_aromatic_ring close_aromatic_ring close_aromatic_ring ring_built build_to_Nd0 close_aromatic_ring

>  <prot_clashes>  (68) 
0

>  <NBS phar>  (68) 
0.2

>  <NBS_non-phar>  (68) 
0.7751019795735677

>  <NBS>  (68) 
0.9751019795735678

>  <source_stage>  (68) 
scored

>  <source_iter>  (68) 
6

>  <source_parent_mol>  (68) 
0

>  <source_scenario>  (68) 
1 0 1 0 0 0

>  <source_rank_in_scored_call>  (68) 
0

>  <source_current_task>  (68) 
close_aromatic_ring

>  <scenario>  (68) 
1 0 1 0 0 0

>  <current_task>  (68) 
no_task

>  <reason_to_skip>  (68) 
some_atom_counter_exceeded

$$$$

     RDKit          3D

 10 11  0  0  0  0  0  0  0  0999 V2000
  -27.8609   -7.5606  -31.1600 C   0  0  0  0  0  0  0  0  0  0  0  0
  -27.6012   -6.6215  -32.1138 N   0  0  0  0  0  0  0  0  0  0  0  0
  -27.7248   -8.9090  -31.1461 N   0  0  0  0  0  0  0  0  0  0  0  0
  -27.8300   -5.3151  -31.8693 C   0  0  0  0  0  0  0  0  0  0  0  0
  -28.3288   -4.9249  -30.6496 C   0  0  0  0  0  0  0  0  0  0  0  0
  -28.6041   -5.8580  -29.6557 C   0  0  0  0  0  0  0  0  0  0  0  0
  -28.3629   -7.1894  -29.9265 C   0  0  0  0  0  0  0  0  0  0  0  0
  -28.1245   -9.3941  -29.9460 C   0  0  0  0  0  0  0  0  0  0  0  0
  -28.5322   -8.3225  -29.1590 C   0  0  0  0  0  0  0  0  0  0  0  0
  -28.9837   -8.5818  -27.8837 O   0  0  0  0  0  0  0  0  0  0  0  0
  1  2  2  0
  1  3  1  0
  2  4  1  0
  4  5  2  0
  5  6  1  0
  6  7  2  0
  1  7  1  0
  3  8  1  0
  8  9  2  0
  7  9  1  0
  9 10  1  0
M  END
>  <name>  (69) 
Car Nac Nd0 Car Car Car Car Car Car O_a

>  <indices>  (69) 
[0, 1, 2]

>  <tasks>  (69) 
probe_placing close_aromatic_ring close_aromatic_ring close_aromatic_ring close_aromatic_ring ring_built build_to_Nd0 close_aromatic_ring

>  <prot_clashes>  (69) 
0

>  <NBS phar>  (69) 
0.2

>  <NBS_non-phar>  (69) 
0.7751019795735677

>  <NBS>  (69) 
0.9751019795735678

>  <source_stage>  (69) 
scored

>  <source_iter>  (69) 
6

>  <source_parent_mol>  (69) 
0

>  <source_scenario>  (69) 
1 0 1 0 0 0

>  <source_rank_in_scored_call>  (69) 
0

>  <source_current_task>  (69) 
close_aromatic_ring

>  <scenario>  (69) 
1 0 1 0 0 0

>  <current_task>  (69) 
no_task

>  <reason_to_skip>  (69) 
some_atom_counter_exceeded

$$$$

     RDKit          3D

 10 11  0  0  0  0  0  0  0  0999 V2000
  -27.8609   -7.5606  -31.1600 C   0  0  0  0  0  0  0  0  0  0  0  0
  -27.6012   -6.6215  -32.1138 N   0  0  0  0  0  0  0  0  0  0  0  0
  -27.7248   -8.9090  -31.1461 N   0  0  0  0  0  0  0  0  0  0  0  0
  -27.8300   -5.3151  -31.8693 C   0  0  0  0  0  0  0  0  0  0  0  0
  -28.3288   -4.9249  -30.6496 C   0  0  0  0  0  0  0  0  0  0  0  0
  -28.6041   -5.8580  -29.6557 C   0  0  0  0  0  0  0  0  0  0  0  0
  -28.3629   -7.1894  -29.9265 C   0  0  0  0  0  0  0  0  0  0  0  0
  -28.1245   -9.3941  -29.9460 C   0  0  0  0  0  0  0  0  0  0  0  0
  -28.5322   -8.3225  -29.1590 C   0  0  0  0  0  0  0  0  0  0  0  0
  -29.0560   -8.3869  -27.7456 C   0  0  0  0  0  0  0  0  0  0  0  0
  1  2  2  0
  1  3  1  0
  2  4  1  0
  4  5  2  0
  5  6  1  0
  6  7  2  0
  1  7  1  0
  3  8  1  0
  8  9  2  0
  7  9  1  0
  9 10  1  0
M  END
>  <name>  (70) 
Car Nac Nd0 Car Car Car Car Car Car Cs3

>  <indices>  (70) 
[0, 1, 2]

>  <tasks>  (70) 
probe_placing close_aromatic_ring close_aromatic_ring close_aromatic_ring close_aromatic_ring ring_built build_to_Nd0 close_aromatic_ring

>  <prot_clashes>  (70) 
0

>  <NBS phar>  (70) 
0.2

>  <NBS_non-phar>  (70) 
0.7751019795735677

>  <NBS>  (70) 
0.9751019795735678

>  <source_stage>  (70) 
scored

>  <source_iter>  (70) 
6

>  <source_parent_mol>  (70) 
0

>  <source_scenario>  (70) 
1 0 1 0 0 0

>  <source_rank_in_scored_call>  (70) 
0

>  <source_current_task>  (70) 
close_aromatic_ring

>  <scenario>  (70) 
1 0 1 0 0 0

>  <current_task>  (70) 
no_task

>  <reason_to_skip>  (70) 
some_atom_counter_exceeded

$$$$

     RDKit          3D

 10 11  0  0  0  0  0  0  0  0999 V2000
  -27.8609   -7.5606  -31.1600 C   0  0  0  0  0  0  0  0  0  0  0  0
  -27.6012   -6.6215  -32.1138 N   0  0  0  0  0  0  0  0  0  0  0  0
  -27.7248   -8.9090  -31.1461 N   0  0  0  0  0  0  0  0  0  0  0  0
  -27.8300   -5.3151  -31.8693 C   0  0  0  0  0  0  0  0  0  0  0  0
  -28.3288   -4.9249  -30.6496 C   0  0  0  0  0  0  0  0  0  0  0  0
  -28.6041   -5.8580  -29.6557 C   0  0  0  0  0  0  0  0  0  0  0  0
  -28.3629   -7.1894  -29.9265 C   0  0  0  0  0  0  0  0  0  0  0  0
  -28.1245   -9.3941  -29.9460 C   0  0  0  0  0  0  0  0  0  0  0  0
  -28.5322   -8.3225  -29.1590 C   0  0  0  0  0  0  0  0  0  0  0  0
  -29.0549   -8.3867  -27.7483 C   0  0  0  0  0  0  0  0  0  0  0  0
  1  2  2  0
  1  3  1  0
  2  4  1  0
  4  5  2  0
  5  6  1  0
  6  7  2  0
  1  7  1  0
  3  8  1  0
  8  9  2  0
  7  9  1  0
  9 10  1  0
M  END
>  <name>  (71) 
Car Nac Nd0 Car Car Car Car Car Car C3r

>  <indices>  (71) 
[0, 1, 2]

>  <tasks>  (71) 
probe_placing close_aromatic_ring close_aromatic_ring close_aromatic_ring close_aromatic_ring ring_built build_to_Nd0 close_aromatic_ring

>  <prot_clashes>  (71) 
0

>  <NBS phar>  (71) 
0.2

>  <NBS_non-phar>  (71) 
0.7751019795735677

>  <NBS>  (71) 
0.9751019795735678

>  <source_stage>  (71) 
scored

>  <source_iter>  (71) 
6

>  <source_parent_mol>  (71) 
0

>  <source_scenario>  (71) 
1 0 1 0 0 0

>  <source_rank_in_scored_call>  (71) 
0

>  <source_current_task>  (71) 
close_aromatic_ring

>  <scenario>  (71) 
1 0 1 0 0 0

>  <current_task>  (71) 
no_task

>  <reason_to_skip>  (71) 
some_atom_counter_exceeded

$$$$

     RDKit          3D

 10 11  0  0  0  0  0  0  0  0999 V2000
  -27.8609   -7.5606  -31.1600 C   0  0  0  0  0  0  0  0  0  0  0  0
  -27.6012   -6.6215  -32.1138 N   0  0  0  0  0  0  0  0  0  0  0  0
  -27.7248   -8.9090  -31.1461 N   0  0  0  0  0  0  0  0  0  0  0  0
  -27.8300   -5.3151  -31.8693 C   0  0  0  0  0  0  0  0  0  0  0  0
  -28.3288   -4.9249  -30.6496 C   0  0  0  0  0  0  0  0  0  0  0  0
  -28.6041   -5.8580  -29.6557 C   0  0  0  0  0  0  0  0  0  0  0  0
  -28.3629   -7.1894  -29.9265 C   0  0  0  0  0  0  0  0  0  0  0  0
  -28.1245   -9.3941  -29.9460 C   0  0  0  0  0  0  0  0  0  0  0  0
  -28.5322   -8.3225  -29.1590 C   0  0  0  0  0  0  0  0  0  0  0  0
  -29.0728   -8.1661  -27.7623 C   0  0  0  0  0  0  0  0  0  0  0  0
  1  2  2  0
  1  3  1  0
  2  4  1  0
  4  5  2  0
  5  6  1  0
  6  7  2  0
  1  7  1  0
  3  8  1  0
  8  9  2  0
  7  9  1  0
  9 10  1  0
M  END
>  <name>  (72) 
Car Nac Nd0 Car Car Car Car Car Car C3r

>  <indices>  (72) 
[0, 1, 2]

>  <tasks>  (72) 
probe_placing close_aromatic_ring close_aromatic_ring close_aromatic_ring close_aromatic_ring ring_built build_to_Nd0 close_aromatic_ring

>  <prot_clashes>  (72) 
0

>  <NBS phar>  (72) 
0.2

>  <NBS_non-phar>  (72) 
0.7751019795735677

>  <NBS>  (72) 
0.9751019795735678

>  <source_stage>  (72) 
scored

>  <source_iter>  (72) 
6

>  <source_parent_mol>  (72) 
0

>  <source_scenario>  (72) 
1 0 1 0 0 0

>  <source_rank_in_scored_call>  (72) 
0

>  <source_current_task>  (72) 
close_aromatic_ring

>  <scenario>  (72) 
1 0 1 0 0 0

>  <current_task>  (72) 
no_task

>  <reason_to_skip>  (72) 
some_atom_counter_exceeded

$$$$

     RDKit          3D

 10 11  0  0  0  0  0  0  0  0999 V2000
  -27.8609   -7.5606  -31.1600 C   0  0  0  0  0  0  0  0  0  0  0  0
  -27.6012   -6.6215  -32.1138 N   0  0  0  0  0  0  0  0  0  0  0  0
  -27.7248   -8.9090  -31.1461 N   0  0  0  0  0  0  0  0  0  0  0  0
  -27.8300   -5.3151  -31.8693 C   0  0  0  0  0  0  0  0  0  0  0  0
  -28.3288   -4.9249  -30.6496 C   0  0  0  0  0  0  0  0  0  0  0  0
  -28.6041   -5.8580  -29.6557 C   0  0  0  0  0  0  0  0  0  0  0  0
  -28.3629   -7.1894  -29.9265 C   0  0  0  0  0  0  0  0  0  0  0  0
  -28.1245   -9.3941  -29.9460 C   0  0  0  0  0  0  0  0  0  0  0  0
  -28.5322   -8.3225  -29.1590 C   0  0  0  0  0  0  0  0  0  0  0  0
  -29.0257   -8.6060  -27.7649 C   0  0  0  0  0  0  0  0  0  0  0  0
  1  2  2  0
  1  3  1  0
  2  4  1  0
  4  5  2  0
  5  6  1  0
  6  7  2  0
  1  7  1  0
  3  8  1  0
  8  9  2  0
  7  9  1  0
  9 10  1  0
M  END
>  <name>  (73) 
Car Nac Nd0 Car Car Car Car Car Car C3r

>  <indices>  (73) 
[0, 1, 2]

>  <tasks>  (73) 
probe_placing close_aromatic_ring close_aromatic_ring close_aromatic_ring close_aromatic_ring ring_built build_to_Nd0 close_aromatic_ring

>  <prot_clashes>  (73) 
0

>  <NBS phar>  (73) 
0.2

>  <NBS_non-phar>  (73) 
0.7751019795735677

>  <NBS>  (73) 
0.9751019795735678

>  <source_stage>  (73) 
scored

>  <source_iter>  (73) 
6

>  <source_parent_mol>  (73) 
0

>  <source_scenario>  (73) 
1 0 1 0 0 0

>  <source_rank_in_scored_call>  (73) 
0

>  <source_current_task>  (73) 
close_aromatic_ring

>  <scenario>  (73) 
1 0 1 0 0 0

>  <current_task>  (73) 
no_task

>  <reason_to_skip>  (73) 
some_atom_counter_exceeded

$$$$

     RDKit          3D

 10 11  0  0  0  0  0  0  0  0999 V2000
  -27.8609   -7.5606  -31.1600 C   0  0  0  0  0  0  0  0  0  0  0  0
  -27.6012   -6.6215  -32.1138 N   0  0  0  0  0  0  0  0  0  0  0  0
  -27.7248   -8.9090  -31.1461 N   0  0  0  0  0  0  0  0  0  0  0  0
  -27.8300   -5.3151  -31.8693 C   0  0  0  0  0  0  0  0  0  0  0  0
  -28.3288   -4.9249  -30.6496 C   0  0  0  0  0  0  0  0  0  0  0  0
  -28.6041   -5.8580  -29.6557 C   0  0  0  0  0  0  0  0  0  0  0  0
  -28.3629   -7.1894  -29.9265 C   0  0  0  0  0  0  0  0  0  0  0  0
  -28.1245   -9.3941  -29.9460 C   0  0  0  0  0  0  0  0  0  0  0  0
  -28.5322   -8.3225  -29.1590 C   0  0  0  0  0  0  0  0  0  0  0  0
  -29.0055   -8.3807  -27.8817 O   0  0  0  0  0  0  0  0  0  0  0  0
  1  2  2  0
  1  3  1  0
  2  4  1  0
  4  5  2  0
  5  6  1  0
  6  7  2  0
  1  7  1  0
  3  8  1  0
  8  9  2  0
  7  9  1  0
  9 10  1  0
M  END
>  <name>  (74) 
Car Nac Nd0 Car Car Car Car Car Car O_d

>  <indices>  (74) 
[0, 1, 2]

>  <tasks>  (74) 
probe_placing close_aromatic_ring close_aromatic_ring close_aromatic_ring close_aromatic_ring ring_built build_to_Nd0 close_aromatic_ring

>  <prot_clashes>  (74) 
0

>  <NBS phar>  (74) 
0.2

>  <NBS_non-phar>  (74) 
0.7751019795735677

>  <NBS>  (74) 
0.9751019795735678

>  <source_stage>  (74) 
scored

>  <source_iter>  (74) 
6

>  <source_parent_mol>  (74) 
0

>  <source_scenario>  (74) 
1 0 1 0 0 0

>  <source_rank_in_scored_call>  (74) 
0

>  <source_current_task>  (74) 
close_aromatic_ring

>  <scenario>  (74) 
1 0 1 0 0 0

>  <current_task>  (74) 
no_task

>  <reason_to_skip>  (74) 
some_atom_counter_exceeded

$$$$

     RDKit          3D

 10 11  0  0  0  0  0  0  0  0999 V2000
  -27.8609   -7.5606  -31.1600 C   0  0  0  0  0  0  0  0  0  0  0  0
  -27.6012   -6.6215  -32.1138 N   0  0  0  0  0  0  0  0  0  0  0  0
  -27.7248   -8.9090  -31.1461 N   0  0  0  0  0  0  0  0  0  0  0  0
  -27.8300   -5.3151  -31.8693 C   0  0  0  0  0  0  0  0  0  0  0  0
  -28.3288   -4.9249  -30.6496 C   0  0  0  0  0  0  0  0  0  0  0  0
  -28.6041   -5.8580  -29.6557 C   0  0  0  0  0  0  0  0  0  0  0  0
  -28.3629   -7.1894  -29.9265 C   0  0  0  0  0  0  0  0  0  0  0  0
  -28.1245   -9.3941  -29.9460 C   0  0  0  0  0  0  0  0  0  0  0  0
  -28.5322   -8.3225  -29.1590 C   0  0  0  0  0  0  0  0  0  0  0  0
  -29.1535   -8.3988  -27.4823 Cl  0  0  0  0  0  0  0  0  0  0  0  0
  1  2  2  0
  1  3  1  0
  2  4  1  0
  4  5  2  0
  5  6  1  0
  6  7  2  0
  1  7  1  0
  3  8  1  0
  8  9  2  0
  7  9  1  0
  9 10  1  0
M  END
>  <name>  (75) 
Car Nac Nd0 Car Car Car Car Car Car Hal

>  <indices>  (75) 
[0, 1, 2]

>  <tasks>  (75) 
probe_placing close_aromatic_ring close_aromatic_ring close_aromatic_ring close_aromatic_ring ring_built build_to_Nd0 close_aromatic_ring

>  <prot_clashes>  (75) 
0

>  <NBS phar>  (75) 
0.2

>  <NBS_non-phar>  (75) 
0.7751019795735677

>  <NBS>  (75) 
0.9751019795735678

>  <source_stage>  (75) 
scored

>  <source_iter>  (75) 
6

>  <source_parent_mol>  (75) 
0

>  <source_scenario>  (75) 
1 0 1 0 0 0

>  <source_rank_in_scored_call>  (75) 
0

>  <source_current_task>  (75) 
close_aromatic_ring

>  <scenario>  (75) 
1 0 1 0 0 0

>  <current_task>  (75) 
no_task

>  <reason_to_skip>  (75) 
some_atom_counter_exceeded

$$$$

     RDKit          3D

 10 11  0  0  0  0  0  0  0  0999 V2000
  -27.8609   -7.5606  -31.1600 C   0  0  0  0  0  0  0  0  0  0  0  0
  -27.6012   -6.6215  -32.1138 N   0  0  0  0  0  0  0  0  0  0  0  0
  -27.7248   -8.9090  -31.1461 N   0  0  0  0  0  0  0  0  0  0  0  0
  -27.8300   -5.3151  -31.8693 C   0  0  0  0  0  0  0  0  0  0  0  0
  -28.3288   -4.9249  -30.6496 C   0  0  0  0  0  0  0  0  0  0  0  0
  -28.6041   -5.8580  -29.6557 C   0  0  0  0  0  0  0  0  0  0  0  0
  -28.3629   -7.1894  -29.9265 C   0  0  0  0  0  0  0  0  0  0  0  0
  -28.1245   -9.3941  -29.9460 C   0  0  0  0  0  0  0  0  0  0  0  0
  -28.5322   -8.3225  -29.1590 C   0  0  0  0  0  0  0  0  0  0  0  0
  -27.5588   -4.3544  -32.8601 C   0  0  0  0  0  0  0  0  0  0  0  0
  1  2  2  0
  1  3  1  0
  2  4  1  0
  4  5  2  0
  5  6  1  0
  6  7  2  0
  1  7  1  0
  3  8  1  0
  8  9  2  0
  7  9  1  0
  4 10  1  0
M  END
>  <name>  (76) 
Car Nac Nd0 Car Car Car Car Car Car Car

>  <indices>  (76) 
[0, 1, 2]

>  <tasks>  (76) 
probe_placing close_aromatic_ring close_aromatic_ring close_aromatic_ring close_aromatic_ring ring_built build_to_Nd0 close_aromatic_ring

>  <prot_clashes>  (76) 
0

>  <NBS phar>  (76) 
0.2

>  <NBS_non-phar>  (76) 
0.7751019795735677

>  <NBS>  (76) 
0.9751019795735678

>  <source_stage>  (76) 
scored

>  <source_iter>  (76) 
6

>  <source_parent_mol>  (76) 
0

>  <source_scenario>  (76) 
1 0 1 0 0 0

>  <source_rank_in_scored_call>  (76) 
0

>  <source_current_task>  (76) 
close_aromatic_ring

>  <scenario>  (76) 
1 0 1 0 0 0

>  <current_task>  (76) 
close_aromatic_ring

>  <reason_to_skip>  (76) 
subgraph mismatch

$$$$

     RDKit          3D

 10 11  0  0  0  0  0  0  0  0999 V2000
  -27.8609   -7.5606  -31.1600 C   0  0  0  0  0  0  0  0  0  0  0  0
  -27.6012   -6.6215  -32.1138 N   0  0  0  0  0  0  0  0  0  0  0  0
  -27.7248   -8.9090  -31.1461 N   0  0  0  0  0  0  0  0  0  0  0  0
  -27.8300   -5.3151  -31.8693 C   0  0  0  0  0  0  0  0  0  0  0  0
  -28.3288   -4.9249  -30.6496 C   0  0  0  0  0  0  0  0  0  0  0  0
  -28.6041   -5.8580  -29.6557 C   0  0  0  0  0  0  0  0  0  0  0  0
  -28.3629   -7.1894  -29.9265 C   0  0  0  0  0  0  0  0  0  0  0  0
  -28.1245   -9.3941  -29.9460 C   0  0  0  0  0  0  0  0  0  0  0  0
  -28.5322   -8.3225  -29.1590 C   0  0  0  0  0  0  0  0  0  0  0  0
  -27.6452   -4.1798  -32.6787 C   0  0  0  0  0  0  0  0  0  0  0  0
  1  2  2  0
  1  3  1  0
  2  4  1  0
  4  5  2  0
  5  6  1  0
  6  7  2  0
  1  7  1  0
  3  8  1  0
  8  9  2  0
  7  9  1  0
  4 10  1  0
M  END
>  <name>  (77) 
Car Nac Nd0 Car Car Car Car Car Car Car

>  <indices>  (77) 
[0, 1, 2]

>  <tasks>  (77) 
probe_placing close_aromatic_ring close_aromatic_ring close_aromatic_ring close_aromatic_ring ring_built build_to_Nd0 close_aromatic_ring

>  <prot_clashes>  (77) 
0

>  <NBS phar>  (77) 
0.2

>  <NBS_non-phar>  (77) 
0.7751019795735677

>  <NBS>  (77) 
0.9751019795735678

>  <source_stage>  (77) 
scored

>  <source_iter>  (77) 
6

>  <source_parent_mol>  (77) 
0

>  <source_scenario>  (77) 
1 0 1 0 0 0

>  <source_rank_in_scored_call>  (77) 
0

>  <source_current_task>  (77) 
close_aromatic_ring

>  <scenario>  (77) 
1 0 1 0 0 0

>  <current_task>  (77) 
close_aromatic_ring

>  <initiate_ring_bisect>  (77) 


>  <reason_to_skip>  (77) 
subgraph mismatch

$$$$

     RDKit          3D

 10 11  0  0  0  0  0  0  0  0999 V2000
  -27.8609   -7.5606  -31.1600 C   0  0  0  0  0  0  0  0  0  0  0  0
  -27.6012   -6.6215  -32.1138 N   0  0  0  0  0  0  0  0  0  0  0  0
  -27.7248   -8.9090  -31.1461 N   0  0  0  0  0  0  0  0  0  0  0  0
  -27.8300   -5.3151  -31.8693 C   0  0  0  0  0  0  0  0  0  0  0  0
  -28.3288   -4.9249  -30.6496 C   0  0  0  0  0  0  0  0  0  0  0  0
  -28.6041   -5.8580  -29.6557 C   0  0  0  0  0  0  0  0  0  0  0  0
  -28.3629   -7.1894  -29.9265 C   0  0  0  0  0  0  0  0  0  0  0  0
  -28.1245   -9.3941  -29.9460 C   0  0  0  0  0  0  0  0  0  0  0  0
  -28.5322   -8.3225  -29.1590 C   0  0  0  0  0  0  0  0  0  0  0  0
  -27.4821   -4.5634  -33.0060 C   0  0  0  0  0  0  0  0  0  0  0  0
  1  2  2  0
  1  3  1  0
  2  4  1  0
  4  5  2  0
  5  6  1  0
  6  7  2  0
  1  7  1  0
  3  8  1  0
  8  9  2  0
  7  9  1  0
  4 10  1  0
M  END
>  <name>  (78) 
Car Nac Nd0 Car Car Car Car Car Car Car

>  <indices>  (78) 
[0, 1, 2]

>  <tasks>  (78) 
probe_placing close_aromatic_ring close_aromatic_ring close_aromatic_ring close_aromatic_ring ring_built build_to_Nd0 close_aromatic_ring

>  <prot_clashes>  (78) 
0

>  <NBS phar>  (78) 
0.2

>  <NBS_non-phar>  (78) 
0.7751019795735677

>  <NBS>  (78) 
0.9751019795735678

>  <source_stage>  (78) 
scored

>  <source_iter>  (78) 
6

>  <source_parent_mol>  (78) 
0

>  <source_scenario>  (78) 
1 0 1 0 0 0

>  <source_rank_in_scored_call>  (78) 
0

>  <source_current_task>  (78) 
close_aromatic_ring

>  <scenario>  (78) 
1 0 1 0 0 0

>  <current_task>  (78) 
close_aromatic_ring

>  <initiate_ring_bisect>  (78) 


>  <reason_to_skip>  (78) 
subgraph mismatch

$$$$

     RDKit          3D

 10 11  0  0  0  0  0  0  0  0999 V2000
  -27.8609   -7.5606  -31.1600 C   0  0  0  0  0  0  0  0  0  0  0  0
  -27.6012   -6.6215  -32.1138 N   0  0  0  0  0  0  0  0  0  0  0  0
  -27.7248   -8.9090  -31.1461 N   0  0  0  0  0  0  0  0  0  0  0  0
  -27.8300   -5.3151  -31.8693 C   0  0  0  0  0  0  0  0  0  0  0  0
  -28.3288   -4.9249  -30.6496 C   0  0  0  0  0  0  0  0  0  0  0  0
  -28.6041   -5.8580  -29.6557 C   0  0  0  0  0  0  0  0  0  0  0  0
  -28.3629   -7.1894  -29.9265 C   0  0  0  0  0  0  0  0  0  0  0  0
  -28.1245   -9.3941  -29.9460 C   0  0  0  0  0  0  0  0  0  0  0  0
  -28.5322   -8.3225  -29.1590 C   0  0  0  0  0  0  0  0  0  0  0  0
  -27.5437   -4.3009  -32.9153 C   0  0  0  0  0  0  0  0  0  0  0  0
  1  2  2  0
  1  3  1  0
  2  4  1  0
  4  5  2  0
  5  6  1  0
  6  7  2  0
  1  7  1  0
  3  8  1  0
  8  9  2  0
  7  9  1  0
  4 10  1  0
M  END
>  <name>  (79) 
Car Nac Nd0 Car Car Car Car Car Car Cs2

>  <indices>  (79) 
[0, 1, 2]

>  <tasks>  (79) 
probe_placing close_aromatic_ring close_aromatic_ring close_aromatic_ring close_aromatic_ring ring_built build_to_Nd0 close_aromatic_ring

>  <prot_clashes>  (79) 
0

>  <NBS phar>  (79) 
0.2

>  <NBS_non-phar>  (79) 
0.7751019795735677

>  <NBS>  (79) 
0.9751019795735678

>  <source_stage>  (79) 
scored

>  <source_iter>  (79) 
6

>  <source_parent_mol>  (79) 
0

>  <source_scenario>  (79) 
1 0 1 0 0 0

>  <source_rank_in_scored_call>  (79) 
0

>  <source_current_task>  (79) 
close_aromatic_ring

>  <scenario>  (79) 
1 0 1 0 0 0

>  <current_task>  (79) 
build_DB_to_Cs2

>  <reason_to_skip>  (79) 
subgraph mismatch

$$$$

     RDKit          3D

 10 11  0  0  0  0  0  0  0  0999 V2000
  -27.8609   -7.5606  -31.1600 C   0  0  0  0  0  0  0  0  0  0  0  0
  -27.6012   -6.6215  -32.1138 N   0  0  0  0  0  0  0  0  0  0  0  0
  -27.7248   -8.9090  -31.1461 N   0  0  0  0  0  0  0  0  0  0  0  0
  -27.8300   -5.3151  -31.8693 C   0  0  0  0  0  0  0  0  0  0  0  0
  -28.3288   -4.9249  -30.6496 C   0  0  0  0  0  0  0  0  0  0  0  0
  -28.6041   -5.8580  -29.6557 C   0  0  0  0  0  0  0  0  0  0  0  0
  -28.3629   -7.1894  -29.9265 C   0  0  0  0  0  0  0  0  0  0  0  0
  -28.1245   -9.3941  -29.9460 C   0  0  0  0  0  0  0  0  0  0  0  0
  -28.5322   -8.3225  -29.1590 C   0  0  0  0  0  0  0  0  0  0  0  0
  -27.5651   -4.3767  -32.8371 N   0  0  0  0  0  0  0  0  0  0  0  0
  1  2  2  0
  1  3  1  0
  2  4  1  0
  4  5  2  0
  5  6  1  0
  6  7  2  0
  1  7  1  0
  3  8  1  0
  8  9  2  0
  7  9  1  0
  4 10  1  0
M  END
>  <name>  (80) 
Car Nac Nd0 Car Car Car Car Car Car Nd0

>  <indices>  (80) 
[0, 1, 2]

>  <tasks>  (80) 
probe_placing close_aromatic_ring close_aromatic_ring close_aromatic_ring close_aromatic_ring ring_built build_to_Nd0 close_aromatic_ring

>  <prot_clashes>  (80) 
0

>  <NBS phar>  (80) 
0.2

>  <NBS_non-phar>  (80) 
0.7751019795735677

>  <NBS>  (80) 
0.9751019795735678

>  <source_stage>  (80) 
scored

>  <source_iter>  (80) 
6

>  <source_parent_mol>  (80) 
0

>  <source_scenario>  (80) 
1 0 1 0 0 0

>  <source_rank_in_scored_call>  (80) 
0

>  <source_current_task>  (80) 
close_aromatic_ring

>  <scenario>  (80) 
1 0 1 0 0 0

>  <current_task>  (80) 
build_to_Nd0

>  <reason_to_skip>  (80) 
subgraph mismatch

$$$$

     RDKit          3D

 10 11  0  0  0  0  0  0  0  0999 V2000
  -27.8609   -7.5606  -31.1600 C   0  0  0  0  0  0  0  0  0  0  0  0
  -27.6012   -6.6215  -32.1138 N   0  0  0  0  0  0  0  0  0  0  0  0
  -27.7248   -8.9090  -31.1461 N   0  0  0  0  0  0  0  0  0  0  0  0
  -27.8300   -5.3151  -31.8693 C   0  0  0  0  0  0  0  0  0  0  0  0
  -28.3288   -4.9249  -30.6496 C   0  0  0  0  0  0  0  0  0  0  0  0
  -28.6041   -5.8580  -29.6557 C   0  0  0  0  0  0  0  0  0  0  0  0
  -28.3629   -7.1894  -29.9265 C   0  0  0  0  0  0  0  0  0  0  0  0
  -28.1245   -9.3941  -29.9460 C   0  0  0  0  0  0  0  0  0  0  0  0
  -28.5322   -8.3225  -29.1590 C   0  0  0  0  0  0  0  0  0  0  0  0
  -27.6495   -4.2061  -32.6600 N   0  0  0  0  0  0  0  0  0  0  0  0
  1  2  2  0
  1  3  1  0
  2  4  1  0
  4  5  2  0
  5  6  1  0
  6  7  2  0
  1  7  1  0
  3  8  1  0
  8  9  2  0
  7  9  1  0
  4 10  1  0
M  END
>  <name>  (81) 
Car Nac Nd0 Car Car Car Car Car Car Nd0

>  <indices>  (81) 
[0, 1, 2]

>  <tasks>  (81) 
probe_placing close_aromatic_ring close_aromatic_ring close_aromatic_ring close_aromatic_ring ring_built build_to_Nd0 close_aromatic_ring

>  <prot_clashes>  (81) 
0

>  <NBS phar>  (81) 
0.2

>  <NBS_non-phar>  (81) 
0.7751019795735677

>  <NBS>  (81) 
0.9751019795735678

>  <source_stage>  (81) 
scored

>  <source_iter>  (81) 
6

>  <source_parent_mol>  (81) 
0

>  <source_scenario>  (81) 
1 0 1 0 0 0

>  <source_rank_in_scored_call>  (81) 
0

>  <source_current_task>  (81) 
close_aromatic_ring

>  <scenario>  (81) 
1 0 1 0 0 0

>  <current_task>  (81) 
build_to_Nd0

>  <initiate_ring_bisect>  (81) 


>  <reason_to_skip>  (81) 
subgraph mismatch

$$$$

     RDKit          3D

 10 11  0  0  0  0  0  0  0  0999 V2000
  -27.8609   -7.5606  -31.1600 C   0  0  0  0  0  0  0  0  0  0  0  0
  -27.6012   -6.6215  -32.1138 N   0  0  0  0  0  0  0  0  0  0  0  0
  -27.7248   -8.9090  -31.1461 N   0  0  0  0  0  0  0  0  0  0  0  0
  -27.8300   -5.3151  -31.8693 C   0  0  0  0  0  0  0  0  0  0  0  0
  -28.3288   -4.9249  -30.6496 C   0  0  0  0  0  0  0  0  0  0  0  0
  -28.6041   -5.8580  -29.6557 C   0  0  0  0  0  0  0  0  0  0  0  0
  -28.3629   -7.1894  -29.9265 C   0  0  0  0  0  0  0  0  0  0  0  0
  -28.1245   -9.3941  -29.9460 C   0  0  0  0  0  0  0  0  0  0  0  0
  -28.5322   -8.3225  -29.1590 C   0  0  0  0  0  0  0  0  0  0  0  0
  -27.4902   -4.5808  -32.9796 N   0  0  0  0  0  0  0  0  0  0  0  0
  1  2  2  0
  1  3  1  0
  2  4  1  0
  4  5  2  0
  5  6  1  0
  6  7  2  0
  1  7  1  0
  3  8  1  0
  8  9  2  0
  7  9  1  0
  4 10  1  0
M  END
>  <name>  (82) 
Car Nac Nd0 Car Car Car Car Car Car Nd0

>  <indices>  (82) 
[0, 1, 2]

>  <tasks>  (82) 
probe_placing close_aromatic_ring close_aromatic_ring close_aromatic_ring close_aromatic_ring ring_built build_to_Nd0 close_aromatic_ring

>  <prot_clashes>  (82) 
0

>  <NBS phar>  (82) 
0.2

>  <NBS_non-phar>  (82) 
0.7751019795735677

>  <NBS>  (82) 
0.9751019795735678

>  <source_stage>  (82) 
scored

>  <source_iter>  (82) 
6

>  <source_parent_mol>  (82) 
0

>  <source_scenario>  (82) 
1 0 1 0 0 0

>  <source_rank_in_scored_call>  (82) 
0

>  <source_current_task>  (82) 
close_aromatic_ring

>  <scenario>  (82) 
1 0 1 0 0 0

>  <current_task>  (82) 
build_to_Nd0

>  <initiate_ring_bisect>  (82) 


>  <reason_to_skip>  (82) 
subgraph mismatch

$$$$

     RDKit          3D

 10 11  0  0  0  0  0  0  0  0999 V2000
  -27.8609   -7.5606  -31.1600 C   0  0  0  0  0  0  0  0  0  0  0  0
  -27.6012   -6.6215  -32.1138 N   0  0  0  0  0  0  0  0  0  0  0  0
  -27.7248   -8.9090  -31.1461 N   0  0  0  0  0  0  0  0  0  0  0  0
  -27.8300   -5.3151  -31.8693 C   0  0  0  0  0  0  0  0  0  0  0  0
  -28.3288   -4.9249  -30.6496 C   0  0  0  0  0  0  0  0  0  0  0  0
  -28.6041   -5.8580  -29.6557 C   0  0  0  0  0  0  0  0  0  0  0  0
  -28.3629   -7.1894  -29.9265 C   0  0  0  0  0  0  0  0  0  0  0  0
  -28.1245   -9.3941  -29.9460 C   0  0  0  0  0  0  0  0  0  0  0  0
  -28.5322   -8.3225  -29.1590 C   0  0  0  0  0  0  0  0  0  0  0  0
  -27.5664   -4.3811  -32.8325 N   0  0  0  0  0  0  0  0  0  0  0  0
  1  2  2  0
  1  3  1  0
  2  4  1  0
  4  5  2  0
  5  6  1  0
  6  7  2  0
  1  7  1  0
  3  8  1  0
  8  9  2  0
  7  9  1  0
  4 10  1  0
M  END
>  <name>  (83) 
Car Nac Nd0 Car Car Car Car Car Car Nac

>  <indices>  (83) 
[0, 1, 2]

>  <tasks>  (83) 
probe_placing close_aromatic_ring close_aromatic_ring close_aromatic_ring close_aromatic_ring ring_built build_to_Nd0 close_aromatic_ring

>  <prot_clashes>  (83) 
0

>  <NBS phar>  (83) 
0.2

>  <NBS_non-phar>  (83) 
0.7751019795735677

>  <NBS>  (83) 
0.9751019795735678

>  <source_stage>  (83) 
scored

>  <source_iter>  (83) 
6

>  <source_parent_mol>  (83) 
0

>  <source_scenario>  (83) 
1 0 1 0 0 0

>  <source_rank_in_scored_call>  (83) 
0

>  <source_current_task>  (83) 
close_aromatic_ring

>  <scenario>  (83) 
1 0 1 0 0 0

>  <current_task>  (83) 
build_to_Nac

>  <reason_to_skip>  (83) 
subgraph mismatch

$$$$

     RDKit          3D

 10 11  0  0  0  0  0  0  0  0999 V2000
  -27.8609   -7.5606  -31.1600 C   0  0  0  0  0  0  0  0  0  0  0  0
  -27.6012   -6.6215  -32.1138 N   0  0  0  0  0  0  0  0  0  0  0  0
  -27.7248   -8.9090  -31.1461 N   0  0  0  0  0  0  0  0  0  0  0  0
  -27.8300   -5.3151  -31.8693 C   0  0  0  0  0  0  0  0  0  0  0  0
  -28.3288   -4.9249  -30.6496 C   0  0  0  0  0  0  0  0  0  0  0  0
  -28.6041   -5.8580  -29.6557 C   0  0  0  0  0  0  0  0  0  0  0  0
  -28.3629   -7.1894  -29.9265 C   0  0  0  0  0  0  0  0  0  0  0  0
  -28.1245   -9.3941  -29.9460 C   0  0  0  0  0  0  0  0  0  0  0  0
  -28.5322   -8.3225  -29.1590 C   0  0  0  0  0  0  0  0  0  0  0  0
  -27.6503   -4.2114  -32.6562 N   0  0  0  0  0  0  0  0  0  0  0  0
  1  2  2  0
  1  3  1  0
  2  4  1  0
  4  5  2  0
  5  6  1  0
  6  7  2  0
  1  7  1  0
  3  8  1  0
  8  9  2  0
  7  9  1  0
  4 10  1  0
M  END
>  <name>  (84) 
Car Nac Nd0 Car Car Car Car Car Car Nac

>  <indices>  (84) 
[0, 1, 2]

>  <tasks>  (84) 
probe_placing close_aromatic_ring close_aromatic_ring close_aromatic_ring close_aromatic_ring ring_built build_to_Nd0 close_aromatic_ring

>  <prot_clashes>  (84) 
0

>  <NBS phar>  (84) 
0.2

>  <NBS_non-phar>  (84) 
0.7751019795735677

>  <NBS>  (84) 
0.9751019795735678

>  <source_stage>  (84) 
scored

>  <source_iter>  (84) 
6

>  <source_parent_mol>  (84) 
0

>  <source_scenario>  (84) 
1 0 1 0 0 0

>  <source_rank_in_scored_call>  (84) 
0

>  <source_current_task>  (84) 
close_aromatic_ring

>  <scenario>  (84) 
1 0 1 0 0 0

>  <current_task>  (84) 
build_to_Nac

>  <initiate_ring_bisect>  (84) 


>  <reason_to_skip>  (84) 
subgraph mismatch

$$$$

     RDKit          3D

 10 11  0  0  0  0  0  0  0  0999 V2000
  -27.8609   -7.5606  -31.1600 C   0  0  0  0  0  0  0  0  0  0  0  0
  -27.6012   -6.6215  -32.1138 N   0  0  0  0  0  0  0  0  0  0  0  0
  -27.7248   -8.9090  -31.1461 N   0  0  0  0  0  0  0  0  0  0  0  0
  -27.8300   -5.3151  -31.8693 C   0  0  0  0  0  0  0  0  0  0  0  0
  -28.3288   -4.9249  -30.6496 C   0  0  0  0  0  0  0  0  0  0  0  0
  -28.6041   -5.8580  -29.6557 C   0  0  0  0  0  0  0  0  0  0  0  0
  -28.3629   -7.1894  -29.9265 C   0  0  0  0  0  0  0  0  0  0  0  0
  -28.1245   -9.3941  -29.9460 C   0  0  0  0  0  0  0  0  0  0  0  0
  -28.5322   -8.3225  -29.1590 C   0  0  0  0  0  0  0  0  0  0  0  0
  -27.4918   -4.5843  -32.9744 N   0  0  0  0  0  0  0  0  0  0  0  0
  1  2  2  0
  1  3  1  0
  2  4  1  0
  4  5  2  0
  5  6  1  0
  6  7  2  0
  1  7  1  0
  3  8  1  0
  8  9  2  0
  7  9  1  0
  4 10  1  0
M  END
>  <name>  (85) 
Car Nac Nd0 Car Car Car Car Car Car Nac

>  <indices>  (85) 
[0, 1, 2]

>  <tasks>  (85) 
probe_placing close_aromatic_ring close_aromatic_ring close_aromatic_ring close_aromatic_ring ring_built build_to_Nd0 close_aromatic_ring

>  <prot_clashes>  (85) 
0

>  <NBS phar>  (85) 
0.2

>  <NBS_non-phar>  (85) 
0.7751019795735677

>  <NBS>  (85) 
0.9751019795735678

>  <source_stage>  (85) 
scored

>  <source_iter>  (85) 
6

>  <source_parent_mol>  (85) 
0

>  <source_scenario>  (85) 
1 0 1 0 0 0

>  <source_rank_in_scored_call>  (85) 
0

>  <source_current_task>  (85) 
close_aromatic_ring

>  <scenario>  (85) 
1 0 1 0 0 0

>  <current_task>  (85) 
build_to_Nac

>  <initiate_ring_bisect>  (85) 


>  <reason_to_skip>  (85) 
subgraph mismatch

$$$$

     RDKit          3D

 10 11  0  0  0  0  0  0  0  0999 V2000
  -27.8609   -7.5606  -31.1600 C   0  0  0  0  0  0  0  0  0  0  0  0
  -27.6012   -6.6215  -32.1138 N   0  0  0  0  0  0  0  0  0  0  0  0
  -27.7248   -8.9090  -31.1461 N   0  0  0  0  0  0  0  0  0  0  0  0
  -27.8300   -5.3151  -31.8693 C   0  0  0  0  0  0  0  0  0  0  0  0
  -28.3288   -4.9249  -30.6496 C   0  0  0  0  0  0  0  0  0  0  0  0
  -28.6041   -5.8580  -29.6557 C   0  0  0  0  0  0  0  0  0  0  0  0
  -28.3629   -7.1894  -29.9265 C   0  0  0  0  0  0  0  0  0  0  0  0
  -28.1245   -9.3941  -29.9460 C   0  0  0  0  0  0  0  0  0  0  0  0
  -28.5322   -8.3225  -29.1590 C   0  0  0  0  0  0  0  0  0  0  0  0
  -27.5475   -4.3144  -32.9014 C   0  0  0  0  0  0  0  0  0  0  0  0
  1  2  2  0
  1  3  1  0
  2  4  1  0
  4  5  2  0
  5  6  1  0
  6  7  2  0
  1  7  1  0
  3  8  1  0
  8  9  2  0
  7  9  1  0
  4 10  1  0
M  END
>  <name>  (86) 
Car Nac Nd0 Car Car Car Car Car Car C2r

>  <indices>  (86) 
[0, 1, 2]

>  <tasks>  (86) 
probe_placing close_aromatic_ring close_aromatic_ring close_aromatic_ring close_aromatic_ring ring_built build_to_Nd0 close_aromatic_ring

>  <prot_clashes>  (86) 
0

>  <NBS phar>  (86) 
0.2

>  <NBS_non-phar>  (86) 
0.7751019795735677

>  <NBS>  (86) 
0.9751019795735678

>  <source_stage>  (86) 
scored

>  <source_iter>  (86) 
6

>  <source_parent_mol>  (86) 
0

>  <source_scenario>  (86) 
1 0 1 0 0 0

>  <source_rank_in_scored_call>  (86) 
0

>  <source_current_task>  (86) 
close_aromatic_ring

>  <scenario>  (86) 
1 0 1 0 0 0

>  <current_task>  (86) 
close_aliphatic_ring

>  <reason_to_skip>  (86) 
subgraph mismatch

$$$$

     RDKit          3D

 10 11  0  0  0  0  0  0  0  0999 V2000
  -27.8609   -7.5606  -31.1600 C   0  0  0  0  0  0  0  0  0  0  0  0
  -27.6012   -6.6215  -32.1138 N   0  0  0  0  0  0  0  0  0  0  0  0
  -27.7248   -8.9090  -31.1461 N   0  0  0  0  0  0  0  0  0  0  0  0
  -27.8300   -5.3151  -31.8693 C   0  0  0  0  0  0  0  0  0  0  0  0
  -28.3288   -4.9249  -30.6496 C   0  0  0  0  0  0  0  0  0  0  0  0
  -28.6041   -5.8580  -29.6557 C   0  0  0  0  0  0  0  0  0  0  0  0
  -28.3629   -7.1894  -29.9265 C   0  0  0  0  0  0  0  0  0  0  0  0
  -28.1245   -9.3941  -29.9460 C   0  0  0  0  0  0  0  0  0  0  0  0
  -28.5322   -8.3225  -29.1590 C   0  0  0  0  0  0  0  0  0  0  0  0
  -27.6375   -4.1325  -32.7125 C   0  0  0  0  0  0  0  0  0  0  0  0
  1  2  2  0
  1  3  1  0
  2  4  1  0
  4  5  2  0
  5  6  1  0
  6  7  2  0
  1  7  1  0
  3  8  1  0
  8  9  2  0
  7  9  1  0
  4 10  1  0
M  END
>  <name>  (87) 
Car Nac Nd0 Car Car Car Car Car Car C2r

>  <indices>  (87) 
[0, 1, 2]

>  <tasks>  (87) 
probe_placing close_aromatic_ring close_aromatic_ring close_aromatic_ring close_aromatic_ring ring_built build_to_Nd0 close_aromatic_ring

>  <prot_clashes>  (87) 
0

>  <NBS phar>  (87) 
0.2

>  <NBS_non-phar>  (87) 
0.7751019795735677

>  <NBS>  (87) 
0.9751019795735678

>  <source_stage>  (87) 
scored

>  <source_iter>  (87) 
6

>  <source_parent_mol>  (87) 
0

>  <source_scenario>  (87) 
1 0 1 0 0 0

>  <source_rank_in_scored_call>  (87) 
0

>  <source_current_task>  (87) 
close_aromatic_ring

>  <scenario>  (87) 
1 0 1 0 0 0

>  <current_task>  (87) 
close_aliphatic_ring

>  <initiate_ring_bisect>  (87) 


>  <reason_to_skip>  (87) 
subgraph mismatch

$$$$

     RDKit          3D

 10 11  0  0  0  0  0  0  0  0999 V2000
  -27.8609   -7.5606  -31.1600 C   0  0  0  0  0  0  0  0  0  0  0  0
  -27.6012   -6.6215  -32.1138 N   0  0  0  0  0  0  0  0  0  0  0  0
  -27.7248   -8.9090  -31.1461 N   0  0  0  0  0  0  0  0  0  0  0  0
  -27.8300   -5.3151  -31.8693 C   0  0  0  0  0  0  0  0  0  0  0  0
  -28.3288   -4.9249  -30.6496 C   0  0  0  0  0  0  0  0  0  0  0  0
  -28.6041   -5.8580  -29.6557 C   0  0  0  0  0  0  0  0  0  0  0  0
  -28.3629   -7.1894  -29.9265 C   0  0  0  0  0  0  0  0  0  0  0  0
  -28.1245   -9.3941  -29.9460 C   0  0  0  0  0  0  0  0  0  0  0  0
  -28.5322   -8.3225  -29.1590 C   0  0  0  0  0  0  0  0  0  0  0  0
  -27.4676   -4.5320  -33.0534 C   0  0  0  0  0  0  0  0  0  0  0  0
  1  2  2  0
  1  3  1  0
  2  4  1  0
  4  5  2  0
  5  6  1  0
  6  7  2  0
  1  7  1  0
  3  8  1  0
  8  9  2  0
  7  9  1  0
  4 10  1  0
M  END
>  <name>  (88) 
Car Nac Nd0 Car Car Car Car Car Car C2r

>  <indices>  (88) 
[0, 1, 2]

>  <tasks>  (88) 
probe_placing close_aromatic_ring close_aromatic_ring close_aromatic_ring close_aromatic_ring ring_built build_to_Nd0 close_aromatic_ring

>  <prot_clashes>  (88) 
0

>  <NBS phar>  (88) 
0.2

>  <NBS_non-phar>  (88) 
0.7751019795735677

>  <NBS>  (88) 
0.9751019795735678

>  <source_stage>  (88) 
scored

>  <source_iter>  (88) 
6

>  <source_parent_mol>  (88) 
0

>  <source_scenario>  (88) 
1 0 1 0 0 0

>  <source_rank_in_scored_call>  (88) 
0

>  <source_current_task>  (88) 
close_aromatic_ring

>  <scenario>  (88) 
1 0 1 0 0 0

>  <current_task>  (88) 
close_aliphatic_ring

>  <initiate_ring_bisect>  (88) 


>  <reason_to_skip>  (88) 
subgraph mismatch

$$$$

     RDKit          3D

 10 11  0  0  0  0  0  0  0  0999 V2000
  -27.8609   -7.5606  -31.1600 C   0  0  0  0  0  0  0  0  0  0  0  0
  -27.6012   -6.6215  -32.1138 N   0  0  0  0  0  0  0  0  0  0  0  0
  -27.7248   -8.9090  -31.1461 N   0  0  0  0  0  0  0  0  0  0  0  0
  -27.8300   -5.3151  -31.8693 C   0  0  0  0  0  0  0  0  0  0  0  0
  -28.3288   -4.9249  -30.6496 C   0  0  0  0  0  0  0  0  0  0  0  0
  -28.6041   -5.8580  -29.6557 C   0  0  0  0  0  0  0  0  0  0  0  0
  -28.3629   -7.1894  -29.9265 C   0  0  0  0  0  0  0  0  0  0  0  0
  -28.1245   -9.3941  -29.9460 C   0  0  0  0  0  0  0  0  0  0  0  0
  -28.5322   -8.3225  -29.1590 C   0  0  0  0  0  0  0  0  0  0  0  0
  -28.5646   -3.5605  -30.4026 C   0  0  0  0  0  0  0  0  0  0  0  0
  1  2  2  0
  1  3  1  0
  2  4  1  0
  4  5  2  0
  5  6  1  0
  6  7  2  0
  1  7  1  0
  3  8  1  0
  8  9  2  0
  7  9  1  0
  5 10  1  0
M  END
>  <name>  (89) 
Car Nac Nd0 Car Car Car Car Car Car Car

>  <indices>  (89) 
[0, 1, 2]

>  <tasks>  (89) 
probe_placing close_aromatic_ring close_aromatic_ring close_aromatic_ring close_aromatic_ring ring_built build_to_Nd0 close_aromatic_ring

>  <prot_clashes>  (89) 
0

>  <NBS phar>  (89) 
0.2

>  <NBS_non-phar>  (89) 
0.7751019795735677

>  <NBS>  (89) 
0.9751019795735678

>  <source_stage>  (89) 
scored

>  <source_iter>  (89) 
6

>  <source_parent_mol>  (89) 
0

>  <source_scenario>  (89) 
1 0 1 0 0 0

>  <source_rank_in_scored_call>  (89) 
0

>  <source_current_task>  (89) 
close_aromatic_ring

>  <scenario>  (89) 
1 0 1 0 0 0

>  <current_task>  (89) 
close_aromatic_ring

>  <reason_to_skip>  (89) 
subgraph mismatch

$$$$

     RDKit          3D

 10 11  0  0  0  0  0  0  0  0999 V2000
  -27.8609   -7.5606  -31.1600 C   0  0  0  0  0  0  0  0  0  0  0  0
  -27.6012   -6.6215  -32.1138 N   0  0  0  0  0  0  0  0  0  0  0  0
  -27.7248   -8.9090  -31.1461 N   0  0  0  0  0  0  0  0  0  0  0  0
  -27.8300   -5.3151  -31.8693 C   0  0  0  0  0  0  0  0  0  0  0  0
  -28.3288   -4.9249  -30.6496 C   0  0  0  0  0  0  0  0  0  0  0  0
  -28.6041   -5.8580  -29.6557 C   0  0  0  0  0  0  0  0  0  0  0  0
  -28.3629   -7.1894  -29.9265 C   0  0  0  0  0  0  0  0  0  0  0  0
  -28.1245   -9.3941  -29.9460 C   0  0  0  0  0  0  0  0  0  0  0  0
  -28.5322   -8.3225  -29.1590 C   0  0  0  0  0  0  0  0  0  0  0  0
  -28.6475   -3.6464  -30.1576 C   0  0  0  0  0  0  0  0  0  0  0  0
  1  2  2  0
  1  3  1  0
  2  4  1  0
  4  5  2  0
  5  6  1  0
  6  7  2  0
  1  7  1  0
  3  8  1  0
  8  9  2  0
  7  9  1  0
  5 10  1  0
M  END
>  <name>  (90) 
Car Nac Nd0 Car Car Car Car Car Car Car

>  <indices>  (90) 
[0, 1, 2]

>  <tasks>  (90) 
probe_placing close_aromatic_ring close_aromatic_ring close_aromatic_ring close_aromatic_ring ring_built build_to_Nd0 close_aromatic_ring

>  <prot_clashes>  (90) 
0

>  <NBS phar>  (90) 
0.2

>  <NBS_non-phar>  (90) 
0.7751019795735677

>  <NBS>  (90) 
0.9751019795735678

>  <source_stage>  (90) 
scored

>  <source_iter>  (90) 
6

>  <source_parent_mol>  (90) 
0

>  <source_scenario>  (90) 
1 0 1 0 0 0

>  <source_rank_in_scored_call>  (90) 
0

>  <source_current_task>  (90) 
close_aromatic_ring

>  <scenario>  (90) 
1 0 1 0 0 0

>  <current_task>  (90) 
close_aromatic_ring

>  <initiate_ring_bisect>  (90) 


>  <reason_to_skip>  (90) 
subgraph mismatch

$$$$

     RDKit          3D

 10 11  0  0  0  0  0  0  0  0999 V2000
  -27.8609   -7.5606  -31.1600 C   0  0  0  0  0  0  0  0  0  0  0  0
  -27.6012   -6.6215  -32.1138 N   0  0  0  0  0  0  0  0  0  0  0  0
  -27.7248   -8.9090  -31.1461 N   0  0  0  0  0  0  0  0  0  0  0  0
  -27.8300   -5.3151  -31.8693 C   0  0  0  0  0  0  0  0  0  0  0  0
  -28.3288   -4.9249  -30.6496 C   0  0  0  0  0  0  0  0  0  0  0  0
  -28.6041   -5.8580  -29.6557 C   0  0  0  0  0  0  0  0  0  0  0  0
  -28.3629   -7.1894  -29.9265 C   0  0  0  0  0  0  0  0  0  0  0  0
  -28.1245   -9.3941  -29.9460 C   0  0  0  0  0  0  0  0  0  0  0  0
  -28.5322   -8.3225  -29.1590 C   0  0  0  0  0  0  0  0  0  0  0  0
  -28.4728   -3.5258  -30.6568 C   0  0  0  0  0  0  0  0  0  0  0  0
  1  2  2  0
  1  3  1  0
  2  4  1  0
  4  5  2  0
  5  6  1  0
  6  7  2  0
  1  7  1  0
  3  8  1  0
  8  9  2  0
  7  9  1  0
  5 10  1  0
M  END
>  <name>  (91) 
Car Nac Nd0 Car Car Car Car Car Car Car

>  <indices>  (91) 
[0, 1, 2]

>  <tasks>  (91) 
probe_placing close_aromatic_ring close_aromatic_ring close_aromatic_ring close_aromatic_ring ring_built build_to_Nd0 close_aromatic_ring

>  <prot_clashes>  (91) 
0

>  <NBS phar>  (91) 
0.2

>  <NBS_non-phar>  (91) 
0.7751019795735677

>  <NBS>  (91) 
0.9751019795735678

>  <source_stage>  (91) 
scored

>  <source_iter>  (91) 
6

>  <source_parent_mol>  (91) 
0

>  <source_scenario>  (91) 
1 0 1 0 0 0

>  <source_rank_in_scored_call>  (91) 
0

>  <source_current_task>  (91) 
close_aromatic_ring

>  <scenario>  (91) 
1 0 1 0 0 0

>  <current_task>  (91) 
close_aromatic_ring

>  <initiate_ring_bisect>  (91) 


>  <reason_to_skip>  (91) 
subgraph mismatch

$$$$

     RDKit          3D

 10 11  0  0  0  0  0  0  0  0999 V2000
  -27.8609   -7.5606  -31.1600 C   0  0  0  0  0  0  0  0  0  0  0  0
  -27.6012   -6.6215  -32.1138 N   0  0  0  0  0  0  0  0  0  0  0  0
  -27.7248   -8.9090  -31.1461 N   0  0  0  0  0  0  0  0  0  0  0  0
  -27.8300   -5.3151  -31.8693 C   0  0  0  0  0  0  0  0  0  0  0  0
  -28.3288   -4.9249  -30.6496 C   0  0  0  0  0  0  0  0  0  0  0  0
  -28.6041   -5.8580  -29.6557 C   0  0  0  0  0  0  0  0  0  0  0  0
  -28.3629   -7.1894  -29.9265 C   0  0  0  0  0  0  0  0  0  0  0  0
  -28.1245   -9.3941  -29.9460 C   0  0  0  0  0  0  0  0  0  0  0  0
  -28.5322   -8.3225  -29.1590 C   0  0  0  0  0  0  0  0  0  0  0  0
  -28.5777   -3.4846  -30.3888 C   0  0  0  0  0  0  0  0  0  0  0  0
  1  2  2  0
  1  3  1  0
  2  4  1  0
  4  5  2  0
  5  6  1  0
  6  7  2  0
  1  7  1  0
  3  8  1  0
  8  9  2  0
  7  9  1  0
  5 10  1  0
M  END
>  <name>  (92) 
Car Nac Nd0 Car Car Car Car Car Car Cs2

>  <indices>  (92) 
[0, 1, 2]

>  <tasks>  (92) 
probe_placing close_aromatic_ring close_aromatic_ring close_aromatic_ring close_aromatic_ring ring_built build_to_Nd0 close_aromatic_ring

>  <prot_clashes>  (92) 
0

>  <NBS phar>  (92) 
0.2

>  <NBS_non-phar>  (92) 
0.7751019795735677

>  <NBS>  (92) 
0.9751019795735678

>  <source_stage>  (92) 
scored

>  <source_iter>  (92) 
6

>  <source_parent_mol>  (92) 
0

>  <source_scenario>  (92) 
1 0 1 0 0 0

>  <source_rank_in_scored_call>  (92) 
0

>  <source_current_task>  (92) 
close_aromatic_ring

>  <scenario>  (92) 
1 0 1 0 0 0

>  <current_task>  (92) 
build_DB_to_Cs2

>  <reason_to_skip>  (92) 
subgraph mismatch

$$$$

     RDKit          3D

 10 11  0  0  0  0  0  0  0  0999 V2000
  -27.8609   -7.5606  -31.1600 C   0  0  0  0  0  0  0  0  0  0  0  0
  -27.6012   -6.6215  -32.1138 N   0  0  0  0  0  0  0  0  0  0  0  0
  -27.7248   -8.9090  -31.1461 N   0  0  0  0  0  0  0  0  0  0  0  0
  -27.8300   -5.3151  -31.8693 C   0  0  0  0  0  0  0  0  0  0  0  0
  -28.3288   -4.9249  -30.6496 C   0  0  0  0  0  0  0  0  0  0  0  0
  -28.6041   -5.8580  -29.6557 C   0  0  0  0  0  0  0  0  0  0  0  0
  -28.3629   -7.1894  -29.9265 C   0  0  0  0  0  0  0  0  0  0  0  0
  -28.1245   -9.3941  -29.9460 C   0  0  0  0  0  0  0  0  0  0  0  0
  -28.5322   -8.3225  -29.1590 C   0  0  0  0  0  0  0  0  0  0  0  0
  -28.5580   -3.5984  -30.4094 N   0  0  0  0  0  0  0  0  0  0  0  0
  1  2  2  0
  1  3  1  0
  2  4  1  0
  4  5  2  0
  5  6  1  0
  6  7  2  0
  1  7  1  0
  3  8  1  0
  8  9  2  0
  7  9  1  0
  5 10  1  0
M  END
>  <name>  (93) 
Car Nac Nd0 Car Car Car Car Car Car Nac

>  <indices>  (93) 
[0, 1, 2]

>  <tasks>  (93) 
probe_placing close_aromatic_ring close_aromatic_ring close_aromatic_ring close_aromatic_ring ring_built build_to_Nd0 close_aromatic_ring

>  <prot_clashes>  (93) 
0

>  <NBS phar>  (93) 
0.2

>  <NBS_non-phar>  (93) 
0.7751019795735677

>  <NBS>  (93) 
0.9751019795735678

>  <source_stage>  (93) 
scored

>  <source_iter>  (93) 
6

>  <source_parent_mol>  (93) 
0

>  <source_scenario>  (93) 
1 0 1 0 0 0

>  <source_rank_in_scored_call>  (93) 
0

>  <source_current_task>  (93) 
close_aromatic_ring

>  <scenario>  (93) 
1 0 1 0 0 0

>  <current_task>  (93) 
build_to_Nac

>  <reason_to_skip>  (93) 
subgraph mismatch

$$$$

     RDKit          3D

 10 11  0  0  0  0  0  0  0  0999 V2000
  -27.8609   -7.5606  -31.1600 C   0  0  0  0  0  0  0  0  0  0  0  0
  -27.6012   -6.6215  -32.1138 N   0  0  0  0  0  0  0  0  0  0  0  0
  -27.7248   -8.9090  -31.1461 N   0  0  0  0  0  0  0  0  0  0  0  0
  -27.8300   -5.3151  -31.8693 C   0  0  0  0  0  0  0  0  0  0  0  0
  -28.3288   -4.9249  -30.6496 C   0  0  0  0  0  0  0  0  0  0  0  0
  -28.6041   -5.8580  -29.6557 C   0  0  0  0  0  0  0  0  0  0  0  0
  -28.3629   -7.1894  -29.9265 C   0  0  0  0  0  0  0  0  0  0  0  0
  -28.1245   -9.3941  -29.9460 C   0  0  0  0  0  0  0  0  0  0  0  0
  -28.5322   -8.3225  -29.1590 C   0  0  0  0  0  0  0  0  0  0  0  0
  -28.6387   -3.6820  -30.1713 N   0  0  0  0  0  0  0  0  0  0  0  0
  1  2  2  0
  1  3  1  0
  2  4  1  0
  4  5  2  0
  5  6  1  0
  6  7  2  0
  1  7  1  0
  3  8  1  0
  8  9  2  0
  7  9  1  0
  5 10  1  0
M  END
>  <name>  (94) 
Car Nac Nd0 Car Car Car Car Car Car Nac

>  <indices>  (94) 
[0, 1, 2]

>  <tasks>  (94) 
probe_placing close_aromatic_ring close_aromatic_ring close_aromatic_ring close_aromatic_ring ring_built build_to_Nd0 close_aromatic_ring

>  <prot_clashes>  (94) 
0

>  <NBS phar>  (94) 
0.2

>  <NBS_non-phar>  (94) 
0.7751019795735677

>  <NBS>  (94) 
0.9751019795735678

>  <source_stage>  (94) 
scored

>  <source_iter>  (94) 
6

>  <source_parent_mol>  (94) 
0

>  <source_scenario>  (94) 
1 0 1 0 0 0

>  <source_rank_in_scored_call>  (94) 
0

>  <source_current_task>  (94) 
close_aromatic_ring

>  <scenario>  (94) 
1 0 1 0 0 0

>  <current_task>  (94) 
build_to_Nac

>  <initiate_ring_bisect>  (94) 


>  <reason_to_skip>  (94) 
subgraph mismatch

$$$$

     RDKit          3D

 10 11  0  0  0  0  0  0  0  0999 V2000
  -27.8609   -7.5606  -31.1600 C   0  0  0  0  0  0  0  0  0  0  0  0
  -27.6012   -6.6215  -32.1138 N   0  0  0  0  0  0  0  0  0  0  0  0
  -27.7248   -8.9090  -31.1461 N   0  0  0  0  0  0  0  0  0  0  0  0
  -27.8300   -5.3151  -31.8693 C   0  0  0  0  0  0  0  0  0  0  0  0
  -28.3288   -4.9249  -30.6496 C   0  0  0  0  0  0  0  0  0  0  0  0
  -28.6041   -5.8580  -29.6557 C   0  0  0  0  0  0  0  0  0  0  0  0
  -28.3629   -7.1894  -29.9265 C   0  0  0  0  0  0  0  0  0  0  0  0
  -28.1245   -9.3941  -29.9460 C   0  0  0  0  0  0  0  0  0  0  0  0
  -28.5322   -8.3225  -29.1590 C   0  0  0  0  0  0  0  0  0  0  0  0
  -28.4688   -3.5647  -30.6566 N   0  0  0  0  0  0  0  0  0  0  0  0
  1  2  2  0
  1  3  1  0
  2  4  1  0
  4  5  2  0
  5  6  1  0
  6  7  2  0
  1  7  1  0
  3  8  1  0
  8  9  2  0
  7  9  1  0
  5 10  1  0
M  END
>  <name>  (95) 
Car Nac Nd0 Car Car Car Car Car Car Nac

>  <indices>  (95) 
[0, 1, 2]

>  <tasks>  (95) 
probe_placing close_aromatic_ring close_aromatic_ring close_aromatic_ring close_aromatic_ring ring_built build_to_Nd0 close_aromatic_ring

>  <prot_clashes>  (95) 
0

>  <NBS phar>  (95) 
0.2

>  <NBS_non-phar>  (95) 
0.7751019795735677

>  <NBS>  (95) 
0.9751019795735678

>  <source_stage>  (95) 
scored

>  <source_iter>  (95) 
6

>  <source_parent_mol>  (95) 
0

>  <source_scenario>  (95) 
1 0 1 0 0 0

>  <source_rank_in_scored_call>  (95) 
0

>  <source_current_task>  (95) 
close_aromatic_ring

>  <scenario>  (95) 
1 0 1 0 0 0

>  <current_task>  (95) 
build_to_Nac

>  <initiate_ring_bisect>  (95) 


>  <reason_to_skip>  (95) 
subgraph mismatch

$$$$

     RDKit          3D

 10 11  0  0  0  0  0  0  0  0999 V2000
  -27.8609   -7.5606  -31.1600 C   0  0  0  0  0  0  0  0  0  0  0  0
  -27.6012   -6.6215  -32.1138 N   0  0  0  0  0  0  0  0  0  0  0  0
  -27.7248   -8.9090  -31.1461 N   0  0  0  0  0  0  0  0  0  0  0  0
  -27.8300   -5.3151  -31.8693 C   0  0  0  0  0  0  0  0  0  0  0  0
  -28.3288   -4.9249  -30.6496 C   0  0  0  0  0  0  0  0  0  0  0  0
  -28.6041   -5.8580  -29.6557 C   0  0  0  0  0  0  0  0  0  0  0  0
  -28.3629   -7.1894  -29.9265 C   0  0  0  0  0  0  0  0  0  0  0  0
  -28.1245   -9.3941  -29.9460 C   0  0  0  0  0  0  0  0  0  0  0  0
  -28.5322   -8.3225  -29.1590 C   0  0  0  0  0  0  0  0  0  0  0  0
  -28.5744   -3.5037  -30.3923 C   0  0  0  0  0  0  0  0  0  0  0  0
  1  2  2  0
  1  3  1  0
  2  4  1  0
  4  5  2  0
  5  6  1  0
  6  7  2  0
  1  7  1  0
  3  8  1  0
  8  9  2  0
  7  9  1  0
  5 10  1  0
M  END
>  <name>  (96) 
Car Nac Nd0 Car Car Car Car Car Car C2r

>  <indices>  (96) 
[0, 1, 2]

>  <tasks>  (96) 
probe_placing close_aromatic_ring close_aromatic_ring close_aromatic_ring close_aromatic_ring ring_built build_to_Nd0 close_aromatic_ring

>  <prot_clashes>  (96) 
0

>  <NBS phar>  (96) 
0.2

>  <NBS_non-phar>  (96) 
0.7751019795735677

>  <NBS>  (96) 
0.9751019795735678

>  <source_stage>  (96) 
scored

>  <source_iter>  (96) 
6

>  <source_parent_mol>  (96) 
0

>  <source_scenario>  (96) 
1 0 1 0 0 0

>  <source_rank_in_scored_call>  (96) 
0

>  <source_current_task>  (96) 
close_aromatic_ring

>  <scenario>  (96) 
1 0 1 0 0 0

>  <current_task>  (96) 
close_aliphatic_ring

>  <reason_to_skip>  (96) 
subgraph mismatch

$$$$

     RDKit          3D

 10 11  0  0  0  0  0  0  0  0999 V2000
  -27.8609   -7.5606  -31.1600 C   0  0  0  0  0  0  0  0  0  0  0  0
  -27.6012   -6.6215  -32.1138 N   0  0  0  0  0  0  0  0  0  0  0  0
  -27.7248   -8.9090  -31.1461 N   0  0  0  0  0  0  0  0  0  0  0  0
  -27.8300   -5.3151  -31.8693 C   0  0  0  0  0  0  0  0  0  0  0  0
  -28.3288   -4.9249  -30.6496 C   0  0  0  0  0  0  0  0  0  0  0  0
  -28.6041   -5.8580  -29.6557 C   0  0  0  0  0  0  0  0  0  0  0  0
  -28.3629   -7.1894  -29.9265 C   0  0  0  0  0  0  0  0  0  0  0  0
  -28.1245   -9.3941  -29.9460 C   0  0  0  0  0  0  0  0  0  0  0  0
  -28.5322   -8.3225  -29.1590 C   0  0  0  0  0  0  0  0  0  0  0  0
  -28.6608   -3.5931  -30.1371 C   0  0  0  0  0  0  0  0  0  0  0  0
  1  2  2  0
  1  3  1  0
  2  4  1  0
  4  5  2  0
  5  6  1  0
  6  7  2  0
  1  7  1  0
  3  8  1  0
  8  9  2  0
  7  9  1  0
  5 10  1  0
M  END
>  <name>  (97) 
Car Nac Nd0 Car Car Car Car Car Car C2r

>  <indices>  (97) 
[0, 1, 2]

>  <tasks>  (97) 
probe_placing close_aromatic_ring close_aromatic_ring close_aromatic_ring close_aromatic_ring ring_built build_to_Nd0 close_aromatic_ring

>  <prot_clashes>  (97) 
0

>  <NBS phar>  (97) 
0.2

>  <NBS_non-phar>  (97) 
0.7751019795735677

>  <NBS>  (97) 
0.9751019795735678

>  <source_stage>  (97) 
scored

>  <source_iter>  (97) 
6

>  <source_parent_mol>  (97) 
0

>  <source_scenario>  (97) 
1 0 1 0 0 0

>  <source_rank_in_scored_call>  (97) 
0

>  <source_current_task>  (97) 
close_aromatic_ring

>  <scenario>  (97) 
1 0 1 0 0 0

>  <current_task>  (97) 
close_aliphatic_ring

>  <initiate_ring_bisect>  (97) 


>  <reason_to_skip>  (97) 
subgraph mismatch

$$$$

     RDKit          3D

 10 11  0  0  0  0  0  0  0  0999 V2000
  -27.8609   -7.5606  -31.1600 C   0  0  0  0  0  0  0  0  0  0  0  0
  -27.6012   -6.6215  -32.1138 N   0  0  0  0  0  0  0  0  0  0  0  0
  -27.7248   -8.9090  -31.1461 N   0  0  0  0  0  0  0  0  0  0  0  0
  -27.8300   -5.3151  -31.8693 C   0  0  0  0  0  0  0  0  0  0  0  0
  -28.3288   -4.9249  -30.6496 C   0  0  0  0  0  0  0  0  0  0  0  0
  -28.6041   -5.8580  -29.6557 C   0  0  0  0  0  0  0  0  0  0  0  0
  -28.3629   -7.1894  -29.9265 C   0  0  0  0  0  0  0  0  0  0  0  0
  -28.1245   -9.3941  -29.9460 C   0  0  0  0  0  0  0  0  0  0  0  0
  -28.5322   -8.3225  -29.1590 C   0  0  0  0  0  0  0  0  0  0  0  0
  -28.4788   -3.4675  -30.6571 C   0  0  0  0  0  0  0  0  0  0  0  0
  1  2  2  0
  1  3  1  0
  2  4  1  0
  4  5  2  0
  5  6  1  0
  6  7  2  0
  1  7  1  0
  3  8  1  0
  8  9  2  0
  7  9  1  0
  5 10  1  0
M  END
>  <name>  (98) 
Car Nac Nd0 Car Car Car Car Car Car C2r

>  <indices>  (98) 
[0, 1, 2]

>  <tasks>  (98) 
probe_placing close_aromatic_ring close_aromatic_ring close_aromatic_ring close_aromatic_ring ring_built build_to_Nd0 close_aromatic_ring

>  <prot_clashes>  (98) 
0

>  <NBS phar>  (98) 
0.2

>  <NBS_non-phar>  (98) 
0.7751019795735677

>  <NBS>  (98) 
0.9751019795735678

>  <source_stage>  (98) 
scored

>  <source_iter>  (98) 
6

>  <source_parent_mol>  (98) 
0

>  <source_scenario>  (98) 
1 0 1 0 0 0

>  <source_rank_in_scored_call>  (98) 
0

>  <source_current_task>  (98) 
close_aromatic_ring

>  <scenario>  (98) 
1 0 1 0 0 0

>  <current_task>  (98) 
close_aliphatic_ring

>  <initiate_ring_bisect>  (98) 


>  <reason_to_skip>  (98) 
subgraph mismatch

$$$$

     RDKit          3D

 10 11  0  0  0  0  0  0  0  0999 V2000
  -27.8609   -7.5606  -31.1600 C   0  0  0  0  0  0  0  0  0  0  0  0
  -27.6012   -6.6215  -32.1138 N   0  0  0  0  0  0  0  0  0  0  0  0
  -27.7248   -8.9090  -31.1461 N   0  0  0  0  0  0  0  0  0  0  0  0
  -27.8300   -5.3151  -31.8693 C   0  0  0  0  0  0  0  0  0  0  0  0
  -28.3288   -4.9249  -30.6496 C   0  0  0  0  0  0  0  0  0  0  0  0
  -28.6041   -5.8580  -29.6557 C   0  0  0  0  0  0  0  0  0  0  0  0
  -28.3629   -7.1894  -29.9265 C   0  0  0  0  0  0  0  0  0  0  0  0
  -28.1245   -9.3941  -29.9460 C   0  0  0  0  0  0  0  0  0  0  0  0
  -28.5322   -8.3225  -29.1590 C   0  0  0  0  0  0  0  0  0  0  0  0
  -29.1145   -5.4555  -28.4084 C   0  0  0  0  0  0  0  0  0  0  0  0
  1  2  2  0
  1  3  1  0
  2  4  1  0
  4  5  2  0
  5  6  1  0
  6  7  2  0
  1  7  1  0
  3  8  1  0
  8  9  2  0
  7  9  1  0
  6 10  1  0
M  END
>  <name>  (99) 
Car Nac Nd0 Car Car Car Car Car Car Car

>  <indices>  (99) 
[0, 1, 2]

>  <tasks>  (99) 
probe_placing close_aromatic_ring close_aromatic_ring close_aromatic_ring close_aromatic_ring ring_built build_to_Nd0 close_aromatic_ring

>  <prot_clashes>  (99) 
0

>  <NBS phar>  (99) 
0.2

>  <NBS_non-phar>  (99) 
0.7751019795735677

>  <NBS>  (99) 
0.9751019795735678

>  <source_stage>  (99) 
scored

>  <source_iter>  (99) 
6

>  <source_parent_mol>  (99) 
0

>  <source_scenario>  (99) 
1 0 1 0 0 0

>  <source_rank_in_scored_call>  (99) 
0

>  <source_current_task>  (99) 
close_aromatic_ring

>  <scenario>  (99) 
1 0 1 0 0 0

>  <current_task>  (99) 
close_aromatic_ring

>  <reason_to_skip>  (99) 
subgraph mismatch

$$$$

     RDKit          3D

 10 11  0  0  0  0  0  0  0  0999 V2000
  -27.8609   -7.5606  -31.1600 C   0  0  0  0  0  0  0  0  0  0  0  0
  -27.6012   -6.6215  -32.1138 N   0  0  0  0  0  0  0  0  0  0  0  0
  -27.7248   -8.9090  -31.1461 N   0  0  0  0  0  0  0  0  0  0  0  0
  -27.8300   -5.3151  -31.8693 C   0  0  0  0  0  0  0  0  0  0  0  0
  -28.3288   -4.9249  -30.6496 C   0  0  0  0  0  0  0  0  0  0  0  0
  -28.6041   -5.8580  -29.6557 C   0  0  0  0  0  0  0  0  0  0  0  0
  -28.3629   -7.1894  -29.9265 C   0  0  0  0  0  0  0  0  0  0  0  0
  -28.1245   -9.3941  -29.9460 C   0  0  0  0  0  0  0  0  0  0  0  0
  -28.5322   -8.3225  -29.1590 C   0  0  0  0  0  0  0  0  0  0  0  0
  -29.1094   -5.7070  -28.3518 C   0  0  0  0  0  0  0  0  0  0  0  0
  1  2  2  0
  1  3  1  0
  2  4  1  0
  4  5  2  0
  5  6  1  0
  6  7  2  0
  1  7  1  0
  3  8  1  0
  8  9  2  0
  7  9  1  0
  6 10  1  0
M  END
>  <name>  (100) 
Car Nac Nd0 Car Car Car Car Car Car Car

>  <indices>  (100) 
[0, 1, 2]

>  <tasks>  (100) 
probe_placing close_aromatic_ring close_aromatic_ring close_aromatic_ring close_aromatic_ring ring_built build_to_Nd0 close_aromatic_ring

>  <prot_clashes>  (100) 
0

>  <NBS phar>  (100) 
0.2

>  <NBS_non-phar>  (100) 
0.7751019795735677

>  <NBS>  (100) 
0.9751019795735678

>  <source_stage>  (100) 
scored

>  <source_iter>  (100) 
6

>  <source_parent_mol>  (100) 
0

>  <source_scenario>  (100) 
1 0 1 0 0 0

>  <source_rank_in_scored_call>  (100) 
0

>  <source_current_task>  (100) 
close_aromatic_ring

>  <scenario>  (100) 
1 0 1 0 0 0

>  <current_task>  (100) 
close_aromatic_ring

>  <initiate_ring_bisect>  (100) 


>  <reason_to_skip>  (100) 
subgraph mismatch

$$$$

     RDKit          3D

 10 11  0  0  0  0  0  0  0  0999 V2000
  -27.8609   -7.5606  -31.1600 C   0  0  0  0  0  0  0  0  0  0  0  0
  -27.6012   -6.6215  -32.1138 N   0  0  0  0  0  0  0  0  0  0  0  0
  -27.7248   -8.9090  -31.1461 N   0  0  0  0  0  0  0  0  0  0  0  0
  -27.8300   -5.3151  -31.8693 C   0  0  0  0  0  0  0  0  0  0  0  0
  -28.3288   -4.9249  -30.6496 C   0  0  0  0  0  0  0  0  0  0  0  0
  -28.6041   -5.8580  -29.6557 C   0  0  0  0  0  0  0  0  0  0  0  0
  -28.3629   -7.1894  -29.9265 C   0  0  0  0  0  0  0  0  0  0  0  0
  -28.1245   -9.3941  -29.9460 C   0  0  0  0  0  0  0  0  0  0  0  0
  -28.5322   -8.3225  -29.1590 C   0  0  0  0  0  0  0  0  0  0  0  0
  -29.1025   -5.2176  -28.5069 C   0  0  0  0  0  0  0  0  0  0  0  0
  1  2  2  0
  1  3  1  0
  2  4  1  0
  4  5  2  0
  5  6  1  0
  6  7  2  0
  1  7  1  0
  3  8  1  0
  8  9  2  0
  7  9  1  0
  6 10  1  0
M  END
>  <name>  (101) 
Car Nac Nd0 Car Car Car Car Car Car Car

>  <indices>  (101) 
[0, 1, 2]

>  <tasks>  (101) 
probe_placing close_aromatic_ring close_aromatic_ring close_aromatic_ring close_aromatic_ring ring_built build_to_Nd0 close_aromatic_ring

>  <prot_clashes>  (101) 
0

>  <NBS phar>  (101) 
0.2

>  <NBS_non-phar>  (101) 
0.7751019795735677

>  <NBS>  (101) 
0.9751019795735678

>  <source_stage>  (101) 
scored

>  <source_iter>  (101) 
6

>  <source_parent_mol>  (101) 
0

>  <source_scenario>  (101) 
1 0 1 0 0 0

>  <source_rank_in_scored_call>  (101) 
0

>  <source_current_task>  (101) 
close_aromatic_ring

>  <scenario>  (101) 
1 0 1 0 0 0

>  <current_task>  (101) 
close_aromatic_ring

>  <initiate_ring_bisect>  (101) 


>  <reason_to_skip>  (101) 
subgraph mismatch

$$$$

     RDKit          3D

 10 11  0  0  0  0  0  0  0  0999 V2000
  -27.8609   -7.5606  -31.1600 C   0  0  0  0  0  0  0  0  0  0  0  0
  -27.6012   -6.6215  -32.1138 N   0  0  0  0  0  0  0  0  0  0  0  0
  -27.7248   -8.9090  -31.1461 N   0  0  0  0  0  0  0  0  0  0  0  0
  -27.8300   -5.3151  -31.8693 C   0  0  0  0  0  0  0  0  0  0  0  0
  -28.3288   -4.9249  -30.6496 C   0  0  0  0  0  0  0  0  0  0  0  0
  -28.6041   -5.8580  -29.6557 C   0  0  0  0  0  0  0  0  0  0  0  0
  -28.3629   -7.1894  -29.9265 C   0  0  0  0  0  0  0  0  0  0  0  0
  -28.1245   -9.3941  -29.9460 C   0  0  0  0  0  0  0  0  0  0  0  0
  -28.5322   -8.3225  -29.1590 C   0  0  0  0  0  0  0  0  0  0  0  0
  -29.1429   -5.4331  -28.3390 C   0  0  0  0  0  0  0  0  0  0  0  0
  1  2  2  0
  1  3  1  0
  2  4  1  0
  4  5  2  0
  5  6  1  0
  6  7  2  0
  1  7  1  0
  3  8  1  0
  8  9  2  0
  7  9  1  0
  6 10  1  0
M  END
>  <name>  (102) 
Car Nac Nd0 Car Car Car Car Car Car Cs2

>  <indices>  (102) 
[0, 1, 2]

>  <tasks>  (102) 
probe_placing close_aromatic_ring close_aromatic_ring close_aromatic_ring close_aromatic_ring ring_built build_to_Nd0 close_aromatic_ring

>  <prot_clashes>  (102) 
0

>  <NBS phar>  (102) 
0.2

>  <NBS_non-phar>  (102) 
0.7751019795735677

>  <NBS>  (102) 
0.9751019795735678

>  <source_stage>  (102) 
scored

>  <source_iter>  (102) 
6

>  <source_parent_mol>  (102) 
0

>  <source_scenario>  (102) 
1 0 1 0 0 0

>  <source_rank_in_scored_call>  (102) 
0

>  <source_current_task>  (102) 
close_aromatic_ring

>  <scenario>  (102) 
1 0 1 0 0 0

>  <current_task>  (102) 
build_DB_to_Cs2

>  <reason_to_skip>  (102) 
subgraph mismatch

$$$$

     RDKit          3D

 10 11  0  0  0  0  0  0  0  0999 V2000
  -27.8609   -7.5606  -31.1600 C   0  0  0  0  0  0  0  0  0  0  0  0
  -27.6012   -6.6215  -32.1138 N   0  0  0  0  0  0  0  0  0  0  0  0
  -27.7248   -8.9090  -31.1461 N   0  0  0  0  0  0  0  0  0  0  0  0
  -27.8300   -5.3151  -31.8693 C   0  0  0  0  0  0  0  0  0  0  0  0
  -28.3288   -4.9249  -30.6496 C   0  0  0  0  0  0  0  0  0  0  0  0
  -28.6041   -5.8580  -29.6557 C   0  0  0  0  0  0  0  0  0  0  0  0
  -28.3629   -7.1894  -29.9265 C   0  0  0  0  0  0  0  0  0  0  0  0
  -28.1245   -9.3941  -29.9460 C   0  0  0  0  0  0  0  0  0  0  0  0
  -28.5322   -8.3225  -29.1590 C   0  0  0  0  0  0  0  0  0  0  0  0
  -29.1027   -5.4648  -28.4374 N   0  0  0  0  0  0  0  0  0  0  0  0
  1  2  2  0
  1  3  1  0
  2  4  1  0
  4  5  2  0
  5  6  1  0
  6  7  2  0
  1  7  1  0
  3  8  1  0
  8  9  2  0
  7  9  1  0
  6 10  1  0
M  END
>  <name>  (103) 
Car Nac Nd0 Car Car Car Car Car Car Nd0

>  <indices>  (103) 
[0, 1, 2]

>  <tasks>  (103) 
probe_placing close_aromatic_ring close_aromatic_ring close_aromatic_ring close_aromatic_ring ring_built build_to_Nd0 close_aromatic_ring

>  <prot_clashes>  (103) 
0

>  <NBS phar>  (103) 
0.2

>  <NBS_non-phar>  (103) 
0.7751019795735677

>  <NBS>  (103) 
0.9751019795735678

>  <source_stage>  (103) 
scored

>  <source_iter>  (103) 
6

>  <source_parent_mol>  (103) 
0

>  <source_scenario>  (103) 
1 0 1 0 0 0

>  <source_rank_in_scored_call>  (103) 
0

>  <source_current_task>  (103) 
close_aromatic_ring

>  <scenario>  (103) 
1 0 1 0 0 0

>  <current_task>  (103) 
build_to_Nd0

>  <reason_to_skip>  (103) 
subgraph mismatch

$$$$

     RDKit          3D

 10 11  0  0  0  0  0  0  0  0999 V2000
  -27.8609   -7.5606  -31.1600 C   0  0  0  0  0  0  0  0  0  0  0  0
  -27.6012   -6.6215  -32.1138 N   0  0  0  0  0  0  0  0  0  0  0  0
  -27.7248   -8.9090  -31.1461 N   0  0  0  0  0  0  0  0  0  0  0  0
  -27.8300   -5.3151  -31.8693 C   0  0  0  0  0  0  0  0  0  0  0  0
  -28.3288   -4.9249  -30.6496 C   0  0  0  0  0  0  0  0  0  0  0  0
  -28.6041   -5.8580  -29.6557 C   0  0  0  0  0  0  0  0  0  0  0  0
  -28.3629   -7.1894  -29.9265 C   0  0  0  0  0  0  0  0  0  0  0  0
  -28.1245   -9.3941  -29.9460 C   0  0  0  0  0  0  0  0  0  0  0  0
  -28.5322   -8.3225  -29.1590 C   0  0  0  0  0  0  0  0  0  0  0  0
  -29.0977   -5.7105  -28.3821 N   0  0  0  0  0  0  0  0  0  0  0  0
  1  2  2  0
  1  3  1  0
  2  4  1  0
  4  5  2  0
  5  6  1  0
  6  7  2  0
  1  7  1  0
  3  8  1  0
  8  9  2  0
  7  9  1  0
  6 10  1  0
M  END
>  <name>  (104) 
Car Nac Nd0 Car Car Car Car Car Car Nd0

>  <indices>  (104) 
[0, 1, 2]

>  <tasks>  (104) 
probe_placing close_aromatic_ring close_aromatic_ring close_aromatic_ring close_aromatic_ring ring_built build_to_Nd0 close_aromatic_ring

>  <prot_clashes>  (104) 
0

>  <NBS phar>  (104) 
0.2

>  <NBS_non-phar>  (104) 
0.7751019795735677

>  <NBS>  (104) 
0.9751019795735678

>  <source_stage>  (104) 
scored

>  <source_iter>  (104) 
6

>  <source_parent_mol>  (104) 
0

>  <source_scenario>  (104) 
1 0 1 0 0 0

>  <source_rank_in_scored_call>  (104) 
0

>  <source_current_task>  (104) 
close_aromatic_ring

>  <scenario>  (104) 
1 0 1 0 0 0

>  <current_task>  (104) 
build_to_Nd0

>  <initiate_ring_bisect>  (104) 


>  <reason_to_skip>  (104) 
subgraph mismatch

$$$$

     RDKit          3D

 10 11  0  0  0  0  0  0  0  0999 V2000
  -27.8609   -7.5606  -31.1600 C   0  0  0  0  0  0  0  0  0  0  0  0
  -27.6012   -6.6215  -32.1138 N   0  0  0  0  0  0  0  0  0  0  0  0
  -27.7248   -8.9090  -31.1461 N   0  0  0  0  0  0  0  0  0  0  0  0
  -27.8300   -5.3151  -31.8693 C   0  0  0  0  0  0  0  0  0  0  0  0
  -28.3288   -4.9249  -30.6496 C   0  0  0  0  0  0  0  0  0  0  0  0
  -28.6041   -5.8580  -29.6557 C   0  0  0  0  0  0  0  0  0  0  0  0
  -28.3629   -7.1894  -29.9265 C   0  0  0  0  0  0  0  0  0  0  0  0
  -28.1245   -9.3941  -29.9460 C   0  0  0  0  0  0  0  0  0  0  0  0
  -28.5322   -8.3225  -29.1590 C   0  0  0  0  0  0  0  0  0  0  0  0
  -29.0909   -5.2324  -28.5336 N   0  0  0  0  0  0  0  0  0  0  0  0
  1  2  2  0
  1  3  1  0
  2  4  1  0
  4  5  2  0
  5  6  1  0
  6  7  2  0
  1  7  1  0
  3  8  1  0
  8  9  2  0
  7  9  1  0
  6 10  1  0
M  END
>  <name>  (105) 
Car Nac Nd0 Car Car Car Car Car Car Nd0

>  <indices>  (105) 
[0, 1, 2]

>  <tasks>  (105) 
probe_placing close_aromatic_ring close_aromatic_ring close_aromatic_ring close_aromatic_ring ring_built build_to_Nd0 close_aromatic_ring

>  <prot_clashes>  (105) 
0

>  <NBS phar>  (105) 
0.2

>  <NBS_non-phar>  (105) 
0.7751019795735677

>  <NBS>  (105) 
0.9751019795735678

>  <source_stage>  (105) 
scored

>  <source_iter>  (105) 
6

>  <source_parent_mol>  (105) 
0

>  <source_scenario>  (105) 
1 0 1 0 0 0

>  <source_rank_in_scored_call>  (105) 
0

>  <source_current_task>  (105) 
close_aromatic_ring

>  <scenario>  (105) 
1 0 1 0 0 0

>  <current_task>  (105) 
build_to_Nd0

>  <initiate_ring_bisect>  (105) 


>  <reason_to_skip>  (105) 
subgraph mismatch

$$$$

     RDKit          3D

 10 11  0  0  0  0  0  0  0  0999 V2000
  -27.8609   -7.5606  -31.1600 C   0  0  0  0  0  0  0  0  0  0  0  0
  -27.6012   -6.6215  -32.1138 N   0  0  0  0  0  0  0  0  0  0  0  0
  -27.7248   -8.9090  -31.1461 N   0  0  0  0  0  0  0  0  0  0  0  0
  -27.8300   -5.3151  -31.8693 C   0  0  0  0  0  0  0  0  0  0  0  0
  -28.3288   -4.9249  -30.6496 C   0  0  0  0  0  0  0  0  0  0  0  0
  -28.6041   -5.8580  -29.6557 C   0  0  0  0  0  0  0  0  0  0  0  0
  -28.3629   -7.1894  -29.9265 C   0  0  0  0  0  0  0  0  0  0  0  0
  -28.1245   -9.3941  -29.9460 C   0  0  0  0  0  0  0  0  0  0  0  0
  -28.5322   -8.3225  -29.1590 C   0  0  0  0  0  0  0  0  0  0  0  0
  -29.1003   -5.4667  -28.4431 N   0  0  0  0  0  0  0  0  0  0  0  0
  1  2  2  0
  1  3  1  0
  2  4  1  0
  4  5  2  0
  5  6  1  0
  6  7  2  0
  1  7  1  0
  3  8  1  0
  8  9  2  0
  7  9  1  0
  6 10  1  0
M  END
>  <name>  (106) 
Car Nac Nd0 Car Car Car Car Car Car Nac

>  <indices>  (106) 
[0, 1, 2]

>  <tasks>  (106) 
probe_placing close_aromatic_ring close_aromatic_ring close_aromatic_ring close_aromatic_ring ring_built build_to_Nd0 close_aromatic_ring

>  <prot_clashes>  (106) 
0

>  <NBS phar>  (106) 
0.2

>  <NBS_non-phar>  (106) 
0.7751019795735677

>  <NBS>  (106) 
0.9751019795735678

>  <source_stage>  (106) 
scored

>  <source_iter>  (106) 
6

>  <source_parent_mol>  (106) 
0

>  <source_scenario>  (106) 
1 0 1 0 0 0

>  <source_rank_in_scored_call>  (106) 
0

>  <source_current_task>  (106) 
close_aromatic_ring

>  <scenario>  (106) 
1 0 1 0 0 0

>  <current_task>  (106) 
build_to_Nac

>  <reason_to_skip>  (106) 
subgraph mismatch

$$$$

     RDKit          3D

 10 11  0  0  0  0  0  0  0  0999 V2000
  -27.8609   -7.5606  -31.1600 C   0  0  0  0  0  0  0  0  0  0  0  0
  -27.6012   -6.6215  -32.1138 N   0  0  0  0  0  0  0  0  0  0  0  0
  -27.7248   -8.9090  -31.1461 N   0  0  0  0  0  0  0  0  0  0  0  0
  -27.8300   -5.3151  -31.8693 C   0  0  0  0  0  0  0  0  0  0  0  0
  -28.3288   -4.9249  -30.6496 C   0  0  0  0  0  0  0  0  0  0  0  0
  -28.6041   -5.8580  -29.6557 C   0  0  0  0  0  0  0  0  0  0  0  0
  -28.3629   -7.1894  -29.9265 C   0  0  0  0  0  0  0  0  0  0  0  0
  -28.1245   -9.3941  -29.9460 C   0  0  0  0  0  0  0  0  0  0  0  0
  -28.5322   -8.3225  -29.1590 C   0  0  0  0  0  0  0  0  0  0  0  0
  -29.0953   -5.7112  -28.3881 N   0  0  0  0  0  0  0  0  0  0  0  0
  1  2  2  0
  1  3  1  0
  2  4  1  0
  4  5  2  0
  5  6  1  0
  6  7  2  0
  1  7  1  0
  3  8  1  0
  8  9  2  0
  7  9  1  0
  6 10  1  0
M  END
>  <name>  (107) 
Car Nac Nd0 Car Car Car Car Car Car Nac

>  <indices>  (107) 
[0, 1, 2]

>  <tasks>  (107) 
probe_placing close_aromatic_ring close_aromatic_ring close_aromatic_ring close_aromatic_ring ring_built build_to_Nd0 close_aromatic_ring

>  <prot_clashes>  (107) 
0

>  <NBS phar>  (107) 
0.2

>  <NBS_non-phar>  (107) 
0.7751019795735677

>  <NBS>  (107) 
0.9751019795735678

>  <source_stage>  (107) 
scored

>  <source_iter>  (107) 
6

>  <source_parent_mol>  (107) 
0

>  <source_scenario>  (107) 
1 0 1 0 0 0

>  <source_rank_in_scored_call>  (107) 
0

>  <source_current_task>  (107) 
close_aromatic_ring

>  <scenario>  (107) 
1 0 1 0 0 0

>  <current_task>  (107) 
build_to_Nac

>  <initiate_ring_bisect>  (107) 


>  <reason_to_skip>  (107) 
subgraph mismatch

$$$$

     RDKit          3D

 10 11  0  0  0  0  0  0  0  0999 V2000
  -27.8609   -7.5606  -31.1600 C   0  0  0  0  0  0  0  0  0  0  0  0
  -27.6012   -6.6215  -32.1138 N   0  0  0  0  0  0  0  0  0  0  0  0
  -27.7248   -8.9090  -31.1461 N   0  0  0  0  0  0  0  0  0  0  0  0
  -27.8300   -5.3151  -31.8693 C   0  0  0  0  0  0  0  0  0  0  0  0
  -28.3288   -4.9249  -30.6496 C   0  0  0  0  0  0  0  0  0  0  0  0
  -28.6041   -5.8580  -29.6557 C   0  0  0  0  0  0  0  0  0  0  0  0
  -28.3629   -7.1894  -29.9265 C   0  0  0  0  0  0  0  0  0  0  0  0
  -28.1245   -9.3941  -29.9460 C   0  0  0  0  0  0  0  0  0  0  0  0
  -28.5322   -8.3225  -29.1590 C   0  0  0  0  0  0  0  0  0  0  0  0
  -29.0886   -5.2354  -28.5389 N   0  0  0  0  0  0  0  0  0  0  0  0
  1  2  2  0
  1  3  1  0
  2  4  1  0
  4  5  2  0
  5  6  1  0
  6  7  2  0
  1  7  1  0
  3  8  1  0
  8  9  2  0
  7  9  1  0
  6 10  1  0
M  END
>  <name>  (108) 
Car Nac Nd0 Car Car Car Car Car Car Nac

>  <indices>  (108) 
[0, 1, 2]

>  <tasks>  (108) 
probe_placing close_aromatic_ring close_aromatic_ring close_aromatic_ring close_aromatic_ring ring_built build_to_Nd0 close_aromatic_ring

>  <prot_clashes>  (108) 
0

>  <NBS phar>  (108) 
0.2

>  <NBS_non-phar>  (108) 
0.7751019795735677

>  <NBS>  (108) 
0.9751019795735678

>  <source_stage>  (108) 
scored

>  <source_iter>  (108) 
6

>  <source_parent_mol>  (108) 
0

>  <source_scenario>  (108) 
1 0 1 0 0 0

>  <source_rank_in_scored_call>  (108) 
0

>  <source_current_task>  (108) 
close_aromatic_ring

>  <scenario>  (108) 
1 0 1 0 0 0

>  <current_task>  (108) 
build_to_Nac

>  <initiate_ring_bisect>  (108) 


>  <reason_to_skip>  (108) 
subgraph mismatch

$$$$

     RDKit          3D

 10 11  0  0  0  0  0  0  0  0999 V2000
  -27.8609   -7.5606  -31.1600 C   0  0  0  0  0  0  0  0  0  0  0  0
  -27.6012   -6.6215  -32.1138 N   0  0  0  0  0  0  0  0  0  0  0  0
  -27.7248   -8.9090  -31.1461 N   0  0  0  0  0  0  0  0  0  0  0  0
  -27.8300   -5.3151  -31.8693 C   0  0  0  0  0  0  0  0  0  0  0  0
  -28.3288   -4.9249  -30.6496 C   0  0  0  0  0  0  0  0  0  0  0  0
  -28.6041   -5.8580  -29.6557 C   0  0  0  0  0  0  0  0  0  0  0  0
  -28.3629   -7.1894  -29.9265 C   0  0  0  0  0  0  0  0  0  0  0  0
  -28.1245   -9.3941  -29.9460 C   0  0  0  0  0  0  0  0  0  0  0  0
  -28.5322   -8.3225  -29.1590 C   0  0  0  0  0  0  0  0  0  0  0  0
  -29.1358   -5.4387  -28.3565 C   0  0  0  0  0  0  0  0  0  0  0  0
  1  2  2  0
  1  3  1  0
  2  4  1  0
  4  5  2  0
  5  6  1  0
  6  7  2  0
  1  7  1  0
  3  8  1  0
  8  9  2  0
  7  9  1  0
  6 10  1  0
M  END
>  <name>  (109) 
Car Nac Nd0 Car Car Car Car Car Car C2r

>  <indices>  (109) 
[0, 1, 2]

>  <tasks>  (109) 
probe_placing close_aromatic_ring close_aromatic_ring close_aromatic_ring close_aromatic_ring ring_built build_to_Nd0 close_aromatic_ring

>  <prot_clashes>  (109) 
0

>  <NBS phar>  (109) 
0.2

>  <NBS_non-phar>  (109) 
0.7751019795735677

>  <NBS>  (109) 
0.9751019795735678

>  <source_stage>  (109) 
scored

>  <source_iter>  (109) 
6

>  <source_parent_mol>  (109) 
0

>  <source_scenario>  (109) 
1 0 1 0 0 0

>  <source_rank_in_scored_call>  (109) 
0

>  <source_current_task>  (109) 
close_aromatic_ring

>  <scenario>  (109) 
1 0 1 0 0 0

>  <current_task>  (109) 
close_aliphatic_ring

>  <reason_to_skip>  (109) 
subgraph mismatch

$$$$

     RDKit          3D

 10 11  0  0  0  0  0  0  0  0999 V2000
  -27.8609   -7.5606  -31.1600 C   0  0  0  0  0  0  0  0  0  0  0  0
  -27.6012   -6.6215  -32.1138 N   0  0  0  0  0  0  0  0  0  0  0  0
  -27.7248   -8.9090  -31.1461 N   0  0  0  0  0  0  0  0  0  0  0  0
  -27.8300   -5.3151  -31.8693 C   0  0  0  0  0  0  0  0  0  0  0  0
  -28.3288   -4.9249  -30.6496 C   0  0  0  0  0  0  0  0  0  0  0  0
  -28.6041   -5.8580  -29.6557 C   0  0  0  0  0  0  0  0  0  0  0  0
  -28.3629   -7.1894  -29.9265 C   0  0  0  0  0  0  0  0  0  0  0  0
  -28.1245   -9.3941  -29.9460 C   0  0  0  0  0  0  0  0  0  0  0  0
  -28.5322   -8.3225  -29.1590 C   0  0  0  0  0  0  0  0  0  0  0  0
  -29.1304   -5.7007  -28.2975 C   0  0  0  0  0  0  0  0  0  0  0  0
  1  2  2  0
  1  3  1  0
  2  4  1  0
  4  5  2  0
  5  6  1  0
  6  7  2  0
  1  7  1  0
  3  8  1  0
  8  9  2  0
  7  9  1  0
  6 10  1  0
M  END
>  <name>  (110) 
Car Nac Nd0 Car Car Car Car Car Car C2r

>  <indices>  (110) 
[0, 1, 2]

>  <tasks>  (110) 
probe_placing close_aromatic_ring close_aromatic_ring close_aromatic_ring close_aromatic_ring ring_built build_to_Nd0 close_aromatic_ring

>  <prot_clashes>  (110) 
0

>  <NBS phar>  (110) 
0.2

>  <NBS_non-phar>  (110) 
0.7751019795735677

>  <NBS>  (110) 
0.9751019795735678

>  <source_stage>  (110) 
scored

>  <source_iter>  (110) 
6

>  <source_parent_mol>  (110) 
0

>  <source_scenario>  (110) 
1 0 1 0 0 0

>  <source_rank_in_scored_call>  (110) 
0

>  <source_current_task>  (110) 
close_aromatic_ring

>  <scenario>  (110) 
1 0 1 0 0 0

>  <current_task>  (110) 
close_aliphatic_ring

>  <initiate_ring_bisect>  (110) 


>  <reason_to_skip>  (110) 
subgraph mismatch

$$$$

     RDKit          3D

 10 11  0  0  0  0  0  0  0  0999 V2000
  -27.8609   -7.5606  -31.1600 C   0  0  0  0  0  0  0  0  0  0  0  0
  -27.6012   -6.6215  -32.1138 N   0  0  0  0  0  0  0  0  0  0  0  0
  -27.7248   -8.9090  -31.1461 N   0  0  0  0  0  0  0  0  0  0  0  0
  -27.8300   -5.3151  -31.8693 C   0  0  0  0  0  0  0  0  0  0  0  0
  -28.3288   -4.9249  -30.6496 C   0  0  0  0  0  0  0  0  0  0  0  0
  -28.6041   -5.8580  -29.6557 C   0  0  0  0  0  0  0  0  0  0  0  0
  -28.3629   -7.1894  -29.9265 C   0  0  0  0  0  0  0  0  0  0  0  0
  -28.1245   -9.3941  -29.9460 C   0  0  0  0  0  0  0  0  0  0  0  0
  -28.5322   -8.3225  -29.1590 C   0  0  0  0  0  0  0  0  0  0  0  0
  -29.1232   -5.1909  -28.4591 C   0  0  0  0  0  0  0  0  0  0  0  0
  1  2  2  0
  1  3  1  0
  2  4  1  0
  4  5  2  0
  5  6  1  0
  6  7  2  0
  1  7  1  0
  3  8  1  0
  8  9  2  0
  7  9  1  0
  6 10  1  0
M  END
>  <name>  (111) 
Car Nac Nd0 Car Car Car Car Car Car C2r

>  <indices>  (111) 
[0, 1, 2]

>  <tasks>  (111) 
probe_placing close_aromatic_ring close_aromatic_ring close_aromatic_ring close_aromatic_ring ring_built build_to_Nd0 close_aromatic_ring

>  <prot_clashes>  (111) 
0

>  <NBS phar>  (111) 
0.2

>  <NBS_non-phar>  (111) 
0.7751019795735677

>  <NBS>  (111) 
0.9751019795735678

>  <source_stage>  (111) 
scored

>  <source_iter>  (111) 
6

>  <source_parent_mol>  (111) 
0

>  <source_scenario>  (111) 
1 0 1 0 0 0

>  <source_rank_in_scored_call>  (111) 
0

>  <source_current_task>  (111) 
close_aromatic_ring

>  <scenario>  (111) 
1 0 1 0 0 0

>  <current_task>  (111) 
close_aliphatic_ring

>  <initiate_ring_bisect>  (111) 


>  <reason_to_skip>  (111) 
subgraph mismatch

$$$$

     RDKit          3D

 10 11  0  0  0  0  0  0  0  0999 V2000
  -27.8609   -7.5606  -31.1600 C   0  0  0  0  0  0  0  0  0  0  0  0
  -27.6012   -6.6215  -32.1138 N   0  0  0  0  0  0  0  0  0  0  0  0
  -27.7248   -8.9090  -31.1461 N   0  0  0  0  0  0  0  0  0  0  0  0
  -27.8300   -5.3151  -31.8693 C   0  0  0  0  0  0  0  0  0  0  0  0
  -28.3288   -4.9249  -30.6496 C   0  0  0  0  0  0  0  0  0  0  0  0
  -28.6041   -5.8580  -29.6557 C   0  0  0  0  0  0  0  0  0  0  0  0
  -28.3629   -7.1894  -29.9265 C   0  0  0  0  0  0  0  0  0  0  0  0
  -28.1245   -9.3941  -29.9460 C   0  0  0  0  0  0  0  0  0  0  0  0
  -28.5322   -8.3225  -29.1590 C   0  0  0  0  0  0  0  0  0  0  0  0
  -28.1267  -10.7473  -29.5624 C   0  0  0  0  0  0  0  0  0  0  0  0
  1  2  2  0
  1  3  1  0
  2  4  1  0
  4  5  2  0
  5  6  1  0
  6  7  2  0
  1  7  1  0
  3  8  1  0
  8  9  2  0
  7  9  1  0
  8 10  1  0
M  END
>  <name>  (112) 
Car Nac Nd0 Car Car Car Car Car Car Car

>  <indices>  (112) 
[0, 1, 2]

>  <tasks>  (112) 
probe_placing close_aromatic_ring close_aromatic_ring close_aromatic_ring close_aromatic_ring ring_built build_to_Nd0 close_aromatic_ring

>  <prot_clashes>  (112) 
0

>  <NBS phar>  (112) 
0.2

>  <NBS_non-phar>  (112) 
0.7751019795735677

>  <NBS>  (112) 
0.9751019795735678

>  <source_stage>  (112) 
scored

>  <source_iter>  (112) 
6

>  <source_parent_mol>  (112) 
0

>  <source_scenario>  (112) 
1 0 1 0 0 0

>  <source_rank_in_scored_call>  (112) 
0

>  <source_current_task>  (112) 
close_aromatic_ring

>  <scenario>  (112) 
1 0 1 0 0 0

>  <current_task>  (112) 
close_aromatic_ring

>  <reason_to_skip>  (112) 
subgraph mismatch

$$$$

     RDKit          3D

 10 11  0  0  0  0  0  0  0  0999 V2000
  -27.8609   -7.5606  -31.1600 C   0  0  0  0  0  0  0  0  0  0  0  0
  -27.6012   -6.6215  -32.1138 N   0  0  0  0  0  0  0  0  0  0  0  0
  -27.7248   -8.9090  -31.1461 N   0  0  0  0  0  0  0  0  0  0  0  0
  -27.8300   -5.3151  -31.8693 C   0  0  0  0  0  0  0  0  0  0  0  0
  -28.3288   -4.9249  -30.6496 C   0  0  0  0  0  0  0  0  0  0  0  0
  -28.6041   -5.8580  -29.6557 C   0  0  0  0  0  0  0  0  0  0  0  0
  -28.3629   -7.1894  -29.9265 C   0  0  0  0  0  0  0  0  0  0  0  0
  -28.1245   -9.3941  -29.9460 C   0  0  0  0  0  0  0  0  0  0  0  0
  -28.5322   -8.3225  -29.1590 C   0  0  0  0  0  0  0  0  0  0  0  0
  -28.2042  -10.6773  -29.3757 C   0  0  0  0  0  0  0  0  0  0  0  0
  1  2  2  0
  1  3  1  0
  2  4  1  0
  4  5  2  0
  5  6  1  0
  6  7  2  0
  1  7  1  0
  3  8  1  0
  8  9  2  0
  7  9  1  0
  8 10  1  0
M  END
>  <name>  (113) 
Car Nac Nd0 Car Car Car Car Car Car Car

>  <indices>  (113) 
[0, 1, 2]

>  <tasks>  (113) 
probe_placing close_aromatic_ring close_aromatic_ring close_aromatic_ring close_aromatic_ring ring_built build_to_Nd0 close_aromatic_ring

>  <prot_clashes>  (113) 
0

>  <NBS phar>  (113) 
0.2

>  <NBS_non-phar>  (113) 
0.7751019795735677

>  <NBS>  (113) 
0.9751019795735678

>  <source_stage>  (113) 
scored

>  <source_iter>  (113) 
6

>  <source_parent_mol>  (113) 
0

>  <source_scenario>  (113) 
1 0 1 0 0 0

>  <source_rank_in_scored_call>  (113) 
0

>  <source_current_task>  (113) 
close_aromatic_ring

>  <scenario>  (113) 
1 0 1 0 0 0

>  <current_task>  (113) 
close_aromatic_ring

>  <initiate_ring_bisect>  (113) 


>  <reason_to_skip>  (113) 
subgraph mismatch

$$$$

     RDKit          3D

 10 11  0  0  0  0  0  0  0  0999 V2000
  -27.8609   -7.5606  -31.1600 C   0  0  0  0  0  0  0  0  0  0  0  0
  -27.6012   -6.6215  -32.1138 N   0  0  0  0  0  0  0  0  0  0  0  0
  -27.7248   -8.9090  -31.1461 N   0  0  0  0  0  0  0  0  0  0  0  0
  -27.8300   -5.3151  -31.8693 C   0  0  0  0  0  0  0  0  0  0  0  0
  -28.3288   -4.9249  -30.6496 C   0  0  0  0  0  0  0  0  0  0  0  0
  -28.6041   -5.8580  -29.6557 C   0  0  0  0  0  0  0  0  0  0  0  0
  -28.3629   -7.1894  -29.9265 C   0  0  0  0  0  0  0  0  0  0  0  0
  -28.1245   -9.3941  -29.9460 C   0  0  0  0  0  0  0  0  0  0  0  0
  -28.5322   -8.3225  -29.1590 C   0  0  0  0  0  0  0  0  0  0  0  0
  -28.0493  -10.7859  -29.7580 C   0  0  0  0  0  0  0  0  0  0  0  0
  1  2  2  0
  1  3  1  0
  2  4  1  0
  4  5  2  0
  5  6  1  0
  6  7  2  0
  1  7  1  0
  3  8  1  0
  8  9  2  0
  7  9  1  0
  8 10  1  0
M  END
>  <name>  (114) 
Car Nac Nd0 Car Car Car Car Car Car Car

>  <indices>  (114) 
[0, 1, 2]

>  <tasks>  (114) 
probe_placing close_aromatic_ring close_aromatic_ring close_aromatic_ring close_aromatic_ring ring_built build_to_Nd0 close_aromatic_ring

>  <prot_clashes>  (114) 
0

>  <NBS phar>  (114) 
0.2

>  <NBS_non-phar>  (114) 
0.7751019795735677

>  <NBS>  (114) 
0.9751019795735678

>  <source_stage>  (114) 
scored

>  <source_iter>  (114) 
6

>  <source_parent_mol>  (114) 
0

>  <source_scenario>  (114) 
1 0 1 0 0 0

>  <source_rank_in_scored_call>  (114) 
0

>  <source_current_task>  (114) 
close_aromatic_ring

>  <scenario>  (114) 
1 0 1 0 0 0

>  <current_task>  (114) 
close_aromatic_ring

>  <initiate_ring_bisect>  (114) 


>  <reason_to_skip>  (114) 
subgraph mismatch

$$$$

     RDKit          3D

 10 11  0  0  0  0  0  0  0  0999 V2000
  -27.8609   -7.5606  -31.1600 C   0  0  0  0  0  0  0  0  0  0  0  0
  -27.6012   -6.6215  -32.1138 N   0  0  0  0  0  0  0  0  0  0  0  0
  -27.7248   -8.9090  -31.1461 N   0  0  0  0  0  0  0  0  0  0  0  0
  -27.8300   -5.3151  -31.8693 C   0  0  0  0  0  0  0  0  0  0  0  0
  -28.3288   -4.9249  -30.6496 C   0  0  0  0  0  0  0  0  0  0  0  0
  -28.6041   -5.8580  -29.6557 C   0  0  0  0  0  0  0  0  0  0  0  0
  -28.3629   -7.1894  -29.9265 C   0  0  0  0  0  0  0  0  0  0  0  0
  -28.1245   -9.3941  -29.9460 C   0  0  0  0  0  0  0  0  0  0  0  0
  -28.5322   -8.3225  -29.1590 C   0  0  0  0  0  0  0  0  0  0  0  0
  -28.1269  -10.8226  -29.5411 C   0  0  0  0  0  0  0  0  0  0  0  0
  1  2  2  0
  1  3  1  0
  2  4  1  0
  4  5  2  0
  5  6  1  0
  6  7  2  0
  1  7  1  0
  3  8  1  0
  8  9  2  0
  7  9  1  0
  8 10  1  0
M  END
>  <name>  (115) 
Car Nac Nd0 Car Car Car Car Car Car Cs2

>  <indices>  (115) 
[0, 1, 2]

>  <tasks>  (115) 
probe_placing close_aromatic_ring close_aromatic_ring close_aromatic_ring close_aromatic_ring ring_built build_to_Nd0 close_aromatic_ring

>  <prot_clashes>  (115) 
0

>  <NBS phar>  (115) 
0.2

>  <NBS_non-phar>  (115) 
0.7751019795735677

>  <NBS>  (115) 
0.9751019795735678

>  <source_stage>  (115) 
scored

>  <source_iter>  (115) 
6

>  <source_parent_mol>  (115) 
0

>  <source_scenario>  (115) 
1 0 1 0 0 0

>  <source_rank_in_scored_call>  (115) 
0

>  <source_current_task>  (115) 
close_aromatic_ring

>  <scenario>  (115) 
1 0 1 0 0 0

>  <current_task>  (115) 
build_DB_to_Cs2

>  <reason_to_skip>  (115) 
subgraph mismatch

$$$$

     RDKit          3D

 10 11  0  0  0  0  0  0  0  0999 V2000
  -27.8609   -7.5606  -31.1600 C   0  0  0  0  0  0  0  0  0  0  0  0
  -27.6012   -6.6215  -32.1138 N   0  0  0  0  0  0  0  0  0  0  0  0
  -27.7248   -8.9090  -31.1461 N   0  0  0  0  0  0  0  0  0  0  0  0
  -27.8300   -5.3151  -31.8693 C   0  0  0  0  0  0  0  0  0  0  0  0
  -28.3288   -4.9249  -30.6496 C   0  0  0  0  0  0  0  0  0  0  0  0
  -28.6041   -5.8580  -29.6557 C   0  0  0  0  0  0  0  0  0  0  0  0
  -28.3629   -7.1894  -29.9265 C   0  0  0  0  0  0  0  0  0  0  0  0
  -28.1245   -9.3941  -29.9460 C   0  0  0  0  0  0  0  0  0  0  0  0
  -28.5322   -8.3225  -29.1590 C   0  0  0  0  0  0  0  0  0  0  0  0
  -28.1267  -10.7159  -29.5713 N   0  0  0  0  0  0  0  0  0  0  0  0
  1  2  2  0
  1  3  1  0
  2  4  1  0
  4  5  2  0
  5  6  1  0
  6  7  2  0
  1  7  1  0
  3  8  1  0
  8  9  2  0
  7  9  1  0
  8 10  1  0
M  END
>  <name>  (116) 
Car Nac Nd0 Car Car Car Car Car Car Nd0

>  <indices>  (116) 
[0, 1, 2]

>  <tasks>  (116) 
probe_placing close_aromatic_ring close_aromatic_ring close_aromatic_ring close_aromatic_ring ring_built build_to_Nd0 close_aromatic_ring

>  <prot_clashes>  (116) 
0

>  <NBS phar>  (116) 
0.2

>  <NBS_non-phar>  (116) 
0.7751019795735677

>  <NBS>  (116) 
0.9751019795735678

>  <source_stage>  (116) 
scored

>  <source_iter>  (116) 
6

>  <source_parent_mol>  (116) 
0

>  <source_scenario>  (116) 
1 0 1 0 0 0

>  <source_rank_in_scored_call>  (116) 
0

>  <source_current_task>  (116) 
close_aromatic_ring

>  <scenario>  (116) 
1 0 1 0 0 0

>  <current_task>  (116) 
build_to_Nd0

>  <reason_to_skip>  (116) 
subgraph mismatch

$$$$

     RDKit          3D

 10 11  0  0  0  0  0  0  0  0999 V2000
  -27.8609   -7.5606  -31.1600 C   0  0  0  0  0  0  0  0  0  0  0  0
  -27.6012   -6.6215  -32.1138 N   0  0  0  0  0  0  0  0  0  0  0  0
  -27.7248   -8.9090  -31.1461 N   0  0  0  0  0  0  0  0  0  0  0  0
  -27.8300   -5.3151  -31.8693 C   0  0  0  0  0  0  0  0  0  0  0  0
  -28.3288   -4.9249  -30.6496 C   0  0  0  0  0  0  0  0  0  0  0  0
  -28.6041   -5.8580  -29.6557 C   0  0  0  0  0  0  0  0  0  0  0  0
  -28.3629   -7.1894  -29.9265 C   0  0  0  0  0  0  0  0  0  0  0  0
  -28.1245   -9.3941  -29.9460 C   0  0  0  0  0  0  0  0  0  0  0  0
  -28.5322   -8.3225  -29.1590 C   0  0  0  0  0  0  0  0  0  0  0  0
  -28.2023  -10.6475  -29.3889 N   0  0  0  0  0  0  0  0  0  0  0  0
  1  2  2  0
  1  3  1  0
  2  4  1  0
  4  5  2  0
  5  6  1  0
  6  7  2  0
  1  7  1  0
  3  8  1  0
  8  9  2  0
  7  9  1  0
  8 10  1  0
M  END
>  <name>  (117) 
Car Nac Nd0 Car Car Car Car Car Car Nd0

>  <indices>  (117) 
[0, 1, 2]

>  <tasks>  (117) 
probe_placing close_aromatic_ring close_aromatic_ring close_aromatic_ring close_aromatic_ring ring_built build_to_Nd0 close_aromatic_ring

>  <prot_clashes>  (117) 
0

>  <NBS phar>  (117) 
0.2

>  <NBS_non-phar>  (117) 
0.7751019795735677

>  <NBS>  (117) 
0.9751019795735678

>  <source_stage>  (117) 
scored

>  <source_iter>  (117) 
6

>  <source_parent_mol>  (117) 
0

>  <source_scenario>  (117) 
1 0 1 0 0 0

>  <source_rank_in_scored_call>  (117) 
0

>  <source_current_task>  (117) 
close_aromatic_ring

>  <scenario>  (117) 
1 0 1 0 0 0

>  <current_task>  (117) 
build_to_Nd0

>  <initiate_ring_bisect>  (117) 


>  <reason_to_skip>  (117) 
subgraph mismatch

$$$$

     RDKit          3D

 10 11  0  0  0  0  0  0  0  0999 V2000
  -27.8609   -7.5606  -31.1600 C   0  0  0  0  0  0  0  0  0  0  0  0
  -27.6012   -6.6215  -32.1138 N   0  0  0  0  0  0  0  0  0  0  0  0
  -27.7248   -8.9090  -31.1461 N   0  0  0  0  0  0  0  0  0  0  0  0
  -27.8300   -5.3151  -31.8693 C   0  0  0  0  0  0  0  0  0  0  0  0
  -28.3288   -4.9249  -30.6496 C   0  0  0  0  0  0  0  0  0  0  0  0
  -28.6041   -5.8580  -29.6557 C   0  0  0  0  0  0  0  0  0  0  0  0
  -28.3629   -7.1894  -29.9265 C   0  0  0  0  0  0  0  0  0  0  0  0
  -28.1245   -9.3941  -29.9460 C   0  0  0  0  0  0  0  0  0  0  0  0
  -28.5322   -8.3225  -29.1590 C   0  0  0  0  0  0  0  0  0  0  0  0
  -28.0510  -10.7537  -29.7624 N   0  0  0  0  0  0  0  0  0  0  0  0
  1  2  2  0
  1  3  1  0
  2  4  1  0
  4  5  2  0
  5  6  1  0
  6  7  2  0
  1  7  1  0
  3  8  1  0
  8  9  2  0
  7  9  1  0
  8 10  1  0
M  END
>  <name>  (118) 
Car Nac Nd0 Car Car Car Car Car Car Nd0

>  <indices>  (118) 
[0, 1, 2]

>  <tasks>  (118) 
probe_placing close_aromatic_ring close_aromatic_ring close_aromatic_ring close_aromatic_ring ring_built build_to_Nd0 close_aromatic_ring

>  <prot_clashes>  (118) 
0

>  <NBS phar>  (118) 
0.2

>  <NBS_non-phar>  (118) 
0.7751019795735677

>  <NBS>  (118) 
0.9751019795735678

>  <source_stage>  (118) 
scored

>  <source_iter>  (118) 
6

>  <source_parent_mol>  (118) 
0

>  <source_scenario>  (118) 
1 0 1 0 0 0

>  <source_rank_in_scored_call>  (118) 
0

>  <source_current_task>  (118) 
close_aromatic_ring

>  <scenario>  (118) 
1 0 1 0 0 0

>  <current_task>  (118) 
build_to_Nd0

>  <initiate_ring_bisect>  (118) 


>  <reason_to_skip>  (118) 
subgraph mismatch

$$$$

     RDKit          3D

 10 11  0  0  0  0  0  0  0  0999 V2000
  -27.8609   -7.5606  -31.1600 C   0  0  0  0  0  0  0  0  0  0  0  0
  -27.6012   -6.6215  -32.1138 N   0  0  0  0  0  0  0  0  0  0  0  0
  -27.7248   -8.9090  -31.1461 N   0  0  0  0  0  0  0  0  0  0  0  0
  -27.8300   -5.3151  -31.8693 C   0  0  0  0  0  0  0  0  0  0  0  0
  -28.3288   -4.9249  -30.6496 C   0  0  0  0  0  0  0  0  0  0  0  0
  -28.6041   -5.8580  -29.6557 C   0  0  0  0  0  0  0  0  0  0  0  0
  -28.3629   -7.1894  -29.9265 C   0  0  0  0  0  0  0  0  0  0  0  0
  -28.1245   -9.3941  -29.9460 C   0  0  0  0  0  0  0  0  0  0  0  0
  -28.5322   -8.3225  -29.1590 C   0  0  0  0  0  0  0  0  0  0  0  0
  -28.1267  -10.7096  -29.5731 N   0  0  0  0  0  0  0  0  0  0  0  0
  1  2  2  0
  1  3  1  0
  2  4  1  0
  4  5  2  0
  5  6  1  0
  6  7  2  0
  1  7  1  0
  3  8  1  0
  8  9  2  0
  7  9  1  0
  8 10  1  0
M  END
>  <name>  (119) 
Car Nac Nd0 Car Car Car Car Car Car Nac

>  <indices>  (119) 
[0, 1, 2]

>  <tasks>  (119) 
probe_placing close_aromatic_ring close_aromatic_ring close_aromatic_ring close_aromatic_ring ring_built build_to_Nd0 close_aromatic_ring

>  <prot_clashes>  (119) 
0

>  <NBS phar>  (119) 
0.2

>  <NBS_non-phar>  (119) 
0.7751019795735677

>  <NBS>  (119) 
0.9751019795735678

>  <source_stage>  (119) 
scored

>  <source_iter>  (119) 
6

>  <source_parent_mol>  (119) 
0

>  <source_scenario>  (119) 
1 0 1 0 0 0

>  <source_rank_in_scored_call>  (119) 
0

>  <source_current_task>  (119) 
close_aromatic_ring

>  <scenario>  (119) 
1 0 1 0 0 0

>  <current_task>  (119) 
build_to_Nac

>  <reason_to_skip>  (119) 
subgraph mismatch

$$$$

     RDKit          3D

 10 11  0  0  0  0  0  0  0  0999 V2000
  -27.8609   -7.5606  -31.1600 C   0  0  0  0  0  0  0  0  0  0  0  0
  -27.6012   -6.6215  -32.1138 N   0  0  0  0  0  0  0  0  0  0  0  0
  -27.7248   -8.9090  -31.1461 N   0  0  0  0  0  0  0  0  0  0  0  0
  -27.8300   -5.3151  -31.8693 C   0  0  0  0  0  0  0  0  0  0  0  0
  -28.3288   -4.9249  -30.6496 C   0  0  0  0  0  0  0  0  0  0  0  0
  -28.6041   -5.8580  -29.6557 C   0  0  0  0  0  0  0  0  0  0  0  0
  -28.3629   -7.1894  -29.9265 C   0  0  0  0  0  0  0  0  0  0  0  0
  -28.1245   -9.3941  -29.9460 C   0  0  0  0  0  0  0  0  0  0  0  0
  -28.5322   -8.3225  -29.1590 C   0  0  0  0  0  0  0  0  0  0  0  0
  -28.2019  -10.6416  -29.3916 N   0  0  0  0  0  0  0  0  0  0  0  0
  1  2  2  0
  1  3  1  0
  2  4  1  0
  4  5  2  0
  5  6  1  0
  6  7  2  0
  1  7  1  0
  3  8  1  0
  8  9  2  0
  7  9  1  0
  8 10  1  0
M  END
>  <name>  (120) 
Car Nac Nd0 Car Car Car Car Car Car Nac

>  <indices>  (120) 
[0, 1, 2]

>  <tasks>  (120) 
probe_placing close_aromatic_ring close_aromatic_ring close_aromatic_ring close_aromatic_ring ring_built build_to_Nd0 close_aromatic_ring

>  <prot_clashes>  (120) 
0

>  <NBS phar>  (120) 
0.2

>  <NBS_non-phar>  (120) 
0.7751019795735677

>  <NBS>  (120) 
0.9751019795735678

>  <source_stage>  (120) 
scored

>  <source_iter>  (120) 
6

>  <source_parent_mol>  (120) 
0

>  <source_scenario>  (120) 
1 0 1 0 0 0

>  <source_rank_in_scored_call>  (120) 
0

>  <source_current_task>  (120) 
close_aromatic_ring

>  <scenario>  (120) 
1 0 1 0 0 0

>  <current_task>  (120) 
build_to_Nac

>  <initiate_ring_bisect>  (120) 


>  <reason_to_skip>  (120) 
subgraph mismatch

$$$$

     RDKit          3D

 10 11  0  0  0  0  0  0  0  0999 V2000
  -27.8609   -7.5606  -31.1600 C   0  0  0  0  0  0  0  0  0  0  0  0
  -27.6012   -6.6215  -32.1138 N   0  0  0  0  0  0  0  0  0  0  0  0
  -27.7248   -8.9090  -31.1461 N   0  0  0  0  0  0  0  0  0  0  0  0
  -27.8300   -5.3151  -31.8693 C   0  0  0  0  0  0  0  0  0  0  0  0
  -28.3288   -4.9249  -30.6496 C   0  0  0  0  0  0  0  0  0  0  0  0
  -28.6041   -5.8580  -29.6557 C   0  0  0  0  0  0  0  0  0  0  0  0
  -28.3629   -7.1894  -29.9265 C   0  0  0  0  0  0  0  0  0  0  0  0
  -28.1245   -9.3941  -29.9460 C   0  0  0  0  0  0  0  0  0  0  0  0
  -28.5322   -8.3225  -29.1590 C   0  0  0  0  0  0  0  0  0  0  0  0
  -28.0514  -10.7472  -29.7633 N   0  0  0  0  0  0  0  0  0  0  0  0
  1  2  2  0
  1  3  1  0
  2  4  1  0
  4  5  2  0
  5  6  1  0
  6  7  2  0
  1  7  1  0
  3  8  1  0
  8  9  2  0
  7  9  1  0
  8 10  1  0
M  END
>  <name>  (121) 
Car Nac Nd0 Car Car Car Car Car Car Nac

>  <indices>  (121) 
[0, 1, 2]

>  <tasks>  (121) 
probe_placing close_aromatic_ring close_aromatic_ring close_aromatic_ring close_aromatic_ring ring_built build_to_Nd0 close_aromatic_ring

>  <prot_clashes>  (121) 
0

>  <NBS phar>  (121) 
0.2

>  <NBS_non-phar>  (121) 
0.7751019795735677

>  <NBS>  (121) 
0.9751019795735678

>  <source_stage>  (121) 
scored

>  <source_iter>  (121) 
6

>  <source_parent_mol>  (121) 
0

>  <source_scenario>  (121) 
1 0 1 0 0 0

>  <source_rank_in_scored_call>  (121) 
0

>  <source_current_task>  (121) 
close_aromatic_ring

>  <scenario>  (121) 
1 0 1 0 0 0

>  <current_task>  (121) 
build_to_Nac

>  <initiate_ring_bisect>  (121) 


>  <reason_to_skip>  (121) 
subgraph mismatch

$$$$

     RDKit          3D

 10 11  0  0  0  0  0  0  0  0999 V2000
  -27.8609   -7.5606  -31.1600 C   0  0  0  0  0  0  0  0  0  0  0  0
  -27.6012   -6.6215  -32.1138 N   0  0  0  0  0  0  0  0  0  0  0  0
  -27.7248   -8.9090  -31.1461 N   0  0  0  0  0  0  0  0  0  0  0  0
  -27.8300   -5.3151  -31.8693 C   0  0  0  0  0  0  0  0  0  0  0  0
  -28.3288   -4.9249  -30.6496 C   0  0  0  0  0  0  0  0  0  0  0  0
  -28.6041   -5.8580  -29.6557 C   0  0  0  0  0  0  0  0  0  0  0  0
  -28.3629   -7.1894  -29.9265 C   0  0  0  0  0  0  0  0  0  0  0  0
  -28.1245   -9.3941  -29.9460 C   0  0  0  0  0  0  0  0  0  0  0  0
  -28.5322   -8.3225  -29.1590 C   0  0  0  0  0  0  0  0  0  0  0  0
  -28.1268  -10.8036  -29.5464 C   0  0  0  0  0  0  0  0  0  0  0  0
  1  2  2  0
  1  3  1  0
  2  4  1  0
  4  5  2  0
  5  6  1  0
  6  7  2  0
  1  7  1  0
  3  8  1  0
  8  9  2  0
  7  9  1  0
  8 10  1  0
M  END
>  <name>  (122) 
Car Nac Nd0 Car Car Car Car Car Car C2r

>  <indices>  (122) 
[0, 1, 2]

>  <tasks>  (122) 
probe_placing close_aromatic_ring close_aromatic_ring close_aromatic_ring close_aromatic_ring ring_built build_to_Nd0 close_aromatic_ring

>  <prot_clashes>  (122) 
0

>  <NBS phar>  (122) 
0.2

>  <NBS_non-phar>  (122) 
0.7751019795735677

>  <NBS>  (122) 
0.9751019795735678

>  <source_stage>  (122) 
scored

>  <source_iter>  (122) 
6

>  <source_parent_mol>  (122) 
0

>  <source_scenario>  (122) 
1 0 1 0 0 0

>  <source_rank_in_scored_call>  (122) 
0

>  <source_current_task>  (122) 
close_aromatic_ring

>  <scenario>  (122) 
1 0 1 0 0 0

>  <current_task>  (122) 
close_aliphatic_ring

>  <reason_to_skip>  (122) 
subgraph mismatch

$$$$

     RDKit          3D

 10 11  0  0  0  0  0  0  0  0999 V2000
  -27.8609   -7.5606  -31.1600 C   0  0  0  0  0  0  0  0  0  0  0  0
  -27.6012   -6.6215  -32.1138 N   0  0  0  0  0  0  0  0  0  0  0  0
  -27.7248   -8.9090  -31.1461 N   0  0  0  0  0  0  0  0  0  0  0  0
  -27.8300   -5.3151  -31.8693 C   0  0  0  0  0  0  0  0  0  0  0  0
  -28.3288   -4.9249  -30.6496 C   0  0  0  0  0  0  0  0  0  0  0  0
  -28.6041   -5.8580  -29.6557 C   0  0  0  0  0  0  0  0  0  0  0  0
  -28.3629   -7.1894  -29.9265 C   0  0  0  0  0  0  0  0  0  0  0  0
  -28.1245   -9.3941  -29.9460 C   0  0  0  0  0  0  0  0  0  0  0  0
  -28.5322   -8.3225  -29.1590 C   0  0  0  0  0  0  0  0  0  0  0  0
  -28.2075  -10.7308  -29.3519 C   0  0  0  0  0  0  0  0  0  0  0  0
  1  2  2  0
  1  3  1  0
  2  4  1  0
  4  5  2  0
  5  6  1  0
  6  7  2  0
  1  7  1  0
  3  8  1  0
  8  9  2  0
  7  9  1  0
  8 10  1  0
M  END
>  <name>  (123) 
Car Nac Nd0 Car Car Car Car Car Car C2r

>  <indices>  (123) 
[0, 1, 2]

>  <tasks>  (123) 
probe_placing close_aromatic_ring close_aromatic_ring close_aromatic_ring close_aromatic_ring ring_built build_to_Nd0 close_aromatic_ring

>  <prot_clashes>  (123) 
0

>  <NBS phar>  (123) 
0.2

>  <NBS_non-phar>  (123) 
0.7751019795735677

>  <NBS>  (123) 
0.9751019795735678

>  <source_stage>  (123) 
scored

>  <source_iter>  (123) 
6

>  <source_parent_mol>  (123) 
0

>  <source_scenario>  (123) 
1 0 1 0 0 0

>  <source_rank_in_scored_call>  (123) 
0

>  <source_current_task>  (123) 
close_aromatic_ring

>  <scenario>  (123) 
1 0 1 0 0 0

>  <current_task>  (123) 
close_aliphatic_ring

>  <initiate_ring_bisect>  (123) 


>  <reason_to_skip>  (123) 
subgraph mismatch

$$$$

     RDKit          3D

 10 11  0  0  0  0  0  0  0  0999 V2000
  -27.8609   -7.5606  -31.1600 C   0  0  0  0  0  0  0  0  0  0  0  0
  -27.6012   -6.6215  -32.1138 N   0  0  0  0  0  0  0  0  0  0  0  0
  -27.7248   -8.9090  -31.1461 N   0  0  0  0  0  0  0  0  0  0  0  0
  -27.8300   -5.3151  -31.8693 C   0  0  0  0  0  0  0  0  0  0  0  0
  -28.3288   -4.9249  -30.6496 C   0  0  0  0  0  0  0  0  0  0  0  0
  -28.6041   -5.8580  -29.6557 C   0  0  0  0  0  0  0  0  0  0  0  0
  -28.3629   -7.1894  -29.9265 C   0  0  0  0  0  0  0  0  0  0  0  0
  -28.1245   -9.3941  -29.9460 C   0  0  0  0  0  0  0  0  0  0  0  0
  -28.5322   -8.3225  -29.1590 C   0  0  0  0  0  0  0  0  0  0  0  0
  -28.0461  -10.8439  -29.7502 C   0  0  0  0  0  0  0  0  0  0  0  0
  1  2  2  0
  1  3  1  0
  2  4  1  0
  4  5  2  0
  5  6  1  0
  6  7  2  0
  1  7  1  0
  3  8  1  0
  8  9  2  0
  7  9  1  0
  8 10  1  0
M  END
>  <name>  (124) 
Car Nac Nd0 Car Car Car Car Car Car C2r

>  <indices>  (124) 
[0, 1, 2]

>  <tasks>  (124) 
probe_placing close_aromatic_ring close_aromatic_ring close_aromatic_ring close_aromatic_ring ring_built build_to_Nd0 close_aromatic_ring

>  <prot_clashes>  (124) 
0

>  <NBS phar>  (124) 
0.2

>  <NBS_non-phar>  (124) 
0.7751019795735677

>  <NBS>  (124) 
0.9751019795735678

>  <source_stage>  (124) 
scored

>  <source_iter>  (124) 
6

>  <source_parent_mol>  (124) 
0

>  <source_scenario>  (124) 
1 0 1 0 0 0

>  <source_rank_in_scored_call>  (124) 
0

>  <source_current_task>  (124) 
close_aromatic_ring

>  <scenario>  (124) 
1 0 1 0 0 0

>  <current_task>  (124) 
close_aliphatic_ring

>  <initiate_ring_bisect>  (124) 


>  <reason_to_skip>  (124) 
subgraph mismatch

$$$$

     RDKit          3D

 10 11  0  0  0  0  0  0  0  0999 V2000
  -27.8609   -7.5606  -31.1600 C   0  0  0  0  0  0  0  0  0  0  0  0
  -27.6012   -6.6215  -32.1138 N   0  0  0  0  0  0  0  0  0  0  0  0
  -27.7248   -8.9090  -31.1461 N   0  0  0  0  0  0  0  0  0  0  0  0
  -27.8300   -5.3151  -31.8693 C   0  0  0  0  0  0  0  0  0  0  0  0
  -28.3288   -4.9249  -30.6496 C   0  0  0  0  0  0  0  0  0  0  0  0
  -28.6041   -5.8580  -29.6557 C   0  0  0  0  0  0  0  0  0  0  0  0
  -28.3629   -7.1894  -29.9265 C   0  0  0  0  0  0  0  0  0  0  0  0
  -28.1245   -9.3941  -29.9460 C   0  0  0  0  0  0  0  0  0  0  0  0
  -28.5322   -8.3225  -29.1590 C   0  0  0  0  0  0  0  0  0  0  0  0
  -29.0205   -8.3825  -27.8414 C   0  0  0  0  0  0  0  0  0  0  0  0
  1  2  2  0
  1  3  1  0
  2  4  1  0
  4  5  2  0
  5  6  1  0
  6  7  2  0
  1  7  1  0
  3  8  1  0
  8  9  2  0
  7  9  1  0
  9 10  1  0
M  END
>  <name>  (125) 
Car Nac Nd0 Car Car Car Car Car Car Car

>  <indices>  (125) 
[0, 1, 2]

>  <tasks>  (125) 
probe_placing close_aromatic_ring close_aromatic_ring close_aromatic_ring close_aromatic_ring ring_built build_to_Nd0 close_aromatic_ring

>  <prot_clashes>  (125) 
0

>  <NBS phar>  (125) 
0.2

>  <NBS_non-phar>  (125) 
0.7751019795735677

>  <NBS>  (125) 
0.9751019795735678

>  <source_stage>  (125) 
scored

>  <source_iter>  (125) 
6

>  <source_parent_mol>  (125) 
0

>  <source_scenario>  (125) 
1 0 1 0 0 0

>  <source_rank_in_scored_call>  (125) 
0

>  <source_current_task>  (125) 
close_aromatic_ring

>  <scenario>  (125) 
1 0 1 0 0 0

>  <current_task>  (125) 
close_aromatic_ring

>  <reason_to_skip>  (125) 
subgraph mismatch

$$$$

     RDKit          3D

 10 11  0  0  0  0  0  0  0  0999 V2000
  -27.8609   -7.5606  -31.1600 C   0  0  0  0  0  0  0  0  0  0  0  0
  -27.6012   -6.6215  -32.1138 N   0  0  0  0  0  0  0  0  0  0  0  0
  -27.7248   -8.9090  -31.1461 N   0  0  0  0  0  0  0  0  0  0  0  0
  -27.8300   -5.3151  -31.8693 C   0  0  0  0  0  0  0  0  0  0  0  0
  -28.3288   -4.9249  -30.6496 C   0  0  0  0  0  0  0  0  0  0  0  0
  -28.6041   -5.8580  -29.6557 C   0  0  0  0  0  0  0  0  0  0  0  0
  -28.3629   -7.1894  -29.9265 C   0  0  0  0  0  0  0  0  0  0  0  0
  -28.1245   -9.3941  -29.9460 C   0  0  0  0  0  0  0  0  0  0  0  0
  -28.5322   -8.3225  -29.1590 C   0  0  0  0  0  0  0  0  0  0  0  0
  -29.0371   -8.1764  -27.8545 C   0  0  0  0  0  0  0  0  0  0  0  0
  1  2  2  0
  1  3  1  0
  2  4  1  0
  4  5  2  0
  5  6  1  0
  6  7  2  0
  1  7  1  0
  3  8  1  0
  8  9  2  0
  7  9  1  0
  9 10  1  0
M  END
>  <name>  (126) 
Car Nac Nd0 Car Car Car Car Car Car Car

>  <indices>  (126) 
[0, 1, 2]

>  <tasks>  (126) 
probe_placing close_aromatic_ring close_aromatic_ring close_aromatic_ring close_aromatic_ring ring_built build_to_Nd0 close_aromatic_ring

>  <prot_clashes>  (126) 
0

>  <NBS phar>  (126) 
0.2

>  <NBS_non-phar>  (126) 
0.7751019795735677

>  <NBS>  (126) 
0.9751019795735678

>  <source_stage>  (126) 
scored

>  <source_iter>  (126) 
6

>  <source_parent_mol>  (126) 
0

>  <source_scenario>  (126) 
1 0 1 0 0 0

>  <source_rank_in_scored_call>  (126) 
0

>  <source_current_task>  (126) 
close_aromatic_ring

>  <scenario>  (126) 
1 0 1 0 0 0

>  <current_task>  (126) 
close_aromatic_ring

>  <initiate_ring_bisect>  (126) 


>  <reason_to_skip>  (126) 
subgraph mismatch

$$$$

     RDKit          3D

 10 11  0  0  0  0  0  0  0  0999 V2000
  -27.8609   -7.5606  -31.1600 C   0  0  0  0  0  0  0  0  0  0  0  0
  -27.6012   -6.6215  -32.1138 N   0  0  0  0  0  0  0  0  0  0  0  0
  -27.7248   -8.9090  -31.1461 N   0  0  0  0  0  0  0  0  0  0  0  0
  -27.8300   -5.3151  -31.8693 C   0  0  0  0  0  0  0  0  0  0  0  0
  -28.3288   -4.9249  -30.6496 C   0  0  0  0  0  0  0  0  0  0  0  0
  -28.6041   -5.8580  -29.6557 C   0  0  0  0  0  0  0  0  0  0  0  0
  -28.3629   -7.1894  -29.9265 C   0  0  0  0  0  0  0  0  0  0  0  0
  -28.1245   -9.3941  -29.9460 C   0  0  0  0  0  0  0  0  0  0  0  0
  -28.5322   -8.3225  -29.1590 C   0  0  0  0  0  0  0  0  0  0  0  0
  -28.9932   -8.5873  -27.8569 C   0  0  0  0  0  0  0  0  0  0  0  0
  1  2  2  0
  1  3  1  0
  2  4  1  0
  4  5  2  0
  5  6  1  0
  6  7  2  0
  1  7  1  0
  3  8  1  0
  8  9  2  0
  7  9  1  0
  9 10  1  0
M  END
>  <name>  (127) 
Car Nac Nd0 Car Car Car Car Car Car Car

>  <indices>  (127) 
[0, 1, 2]

>  <tasks>  (127) 
probe_placing close_aromatic_ring close_aromatic_ring close_aromatic_ring close_aromatic_ring ring_built build_to_Nd0 close_aromatic_ring

>  <prot_clashes>  (127) 
0

>  <NBS phar>  (127) 
0.2

>  <NBS_non-phar>  (127) 
0.7751019795735677

>  <NBS>  (127) 
0.9751019795735678

>  <source_stage>  (127) 
scored

>  <source_iter>  (127) 
6

>  <source_parent_mol>  (127) 
0

>  <source_scenario>  (127) 
1 0 1 0 0 0

>  <source_rank_in_scored_call>  (127) 
0

>  <source_current_task>  (127) 
close_aromatic_ring

>  <scenario>  (127) 
1 0 1 0 0 0

>  <current_task>  (127) 
close_aromatic_ring

>  <initiate_ring_bisect>  (127) 


>  <reason_to_skip>  (127) 
subgraph mismatch

$$$$

     RDKit          3D

 10 11  0  0  0  0  0  0  0  0999 V2000
  -27.8609   -7.5606  -31.1600 C   0  0  0  0  0  0  0  0  0  0  0  0
  -27.6012   -6.6215  -32.1138 N   0  0  0  0  0  0  0  0  0  0  0  0
  -27.7248   -8.9090  -31.1461 N   0  0  0  0  0  0  0  0  0  0  0  0
  -27.8300   -5.3151  -31.8693 C   0  0  0  0  0  0  0  0  0  0  0  0
  -28.3288   -4.9249  -30.6496 C   0  0  0  0  0  0  0  0  0  0  0  0
  -28.6041   -5.8580  -29.6557 C   0  0  0  0  0  0  0  0  0  0  0  0
  -28.3629   -7.1894  -29.9265 C   0  0  0  0  0  0  0  0  0  0  0  0
  -28.1245   -9.3941  -29.9460 C   0  0  0  0  0  0  0  0  0  0  0  0
  -28.5322   -8.3225  -29.1590 C   0  0  0  0  0  0  0  0  0  0  0  0
  -29.0476   -8.3858  -27.7680 C   0  0  0  0  0  0  0  0  0  0  0  0
  1  2  2  0
  1  3  1  0
  2  4  1  0
  4  5  2  0
  5  6  1  0
  6  7  2  0
  1  7  1  0
  3  8  1  0
  8  9  2  0
  7  9  1  0
  9 10  1  0
M  END
>  <name>  (128) 
Car Nac Nd0 Car Car Car Car Car Car Cs2

>  <indices>  (128) 
[0, 1, 2]

>  <tasks>  (128) 
probe_placing close_aromatic_ring close_aromatic_ring close_aromatic_ring close_aromatic_ring ring_built build_to_Nd0 close_aromatic_ring

>  <prot_clashes>  (128) 
0

>  <NBS phar>  (128) 
0.2

>  <NBS_non-phar>  (128) 
0.7751019795735677

>  <NBS>  (128) 
0.9751019795735678

>  <source_stage>  (128) 
scored

>  <source_iter>  (128) 
6

>  <source_parent_mol>  (128) 
0

>  <source_scenario>  (128) 
1 0 1 0 0 0

>  <source_rank_in_scored_call>  (128) 
0

>  <source_current_task>  (128) 
close_aromatic_ring

>  <scenario>  (128) 
1 0 1 0 0 0

>  <current_task>  (128) 
build_DB_to_Cs2

>  <reason_to_skip>  (128) 
subgraph mismatch

$$$$

     RDKit          3D

 10 11  0  0  0  0  0  0  0  0999 V2000
  -27.8609   -7.5606  -31.1600 C   0  0  0  0  0  0  0  0  0  0  0  0
  -27.6012   -6.6215  -32.1138 N   0  0  0  0  0  0  0  0  0  0  0  0
  -27.7248   -8.9090  -31.1461 N   0  0  0  0  0  0  0  0  0  0  0  0
  -27.8300   -5.3151  -31.8693 C   0  0  0  0  0  0  0  0  0  0  0  0
  -28.3288   -4.9249  -30.6496 C   0  0  0  0  0  0  0  0  0  0  0  0
  -28.6041   -5.8580  -29.6557 C   0  0  0  0  0  0  0  0  0  0  0  0
  -28.3629   -7.1894  -29.9265 C   0  0  0  0  0  0  0  0  0  0  0  0
  -28.1245   -9.3941  -29.9460 C   0  0  0  0  0  0  0  0  0  0  0  0
  -28.5322   -8.3225  -29.1590 C   0  0  0  0  0  0  0  0  0  0  0  0
  -29.0091   -8.3811  -27.8719 N   0  0  0  0  0  0  0  0  0  0  0  0
  1  2  2  0
  1  3  1  0
  2  4  1  0
  4  5  2  0
  5  6  1  0
  6  7  2  0
  1  7  1  0
  3  8  1  0
  8  9  2  0
  7  9  1  0
  9 10  1  0
M  END
>  <name>  (129) 
Car Nac Nd0 Car Car Car Car Car Car Nd0

>  <indices>  (129) 
[0, 1, 2]

>  <tasks>  (129) 
probe_placing close_aromatic_ring close_aromatic_ring close_aromatic_ring close_aromatic_ring ring_built build_to_Nd0 close_aromatic_ring

>  <prot_clashes>  (129) 
0

>  <NBS phar>  (129) 
0.2

>  <NBS_non-phar>  (129) 
0.7751019795735677

>  <NBS>  (129) 
0.9751019795735678

>  <source_stage>  (129) 
scored

>  <source_iter>  (129) 
6

>  <source_parent_mol>  (129) 
0

>  <source_scenario>  (129) 
1 0 1 0 0 0

>  <source_rank_in_scored_call>  (129) 
0

>  <source_current_task>  (129) 
close_aromatic_ring

>  <scenario>  (129) 
1 0 1 0 0 0

>  <current_task>  (129) 
build_to_Nd0

>  <reason_to_skip>  (129) 
subgraph mismatch

$$$$

     RDKit          3D

 10 11  0  0  0  0  0  0  0  0999 V2000
  -27.8609   -7.5606  -31.1600 C   0  0  0  0  0  0  0  0  0  0  0  0
  -27.6012   -6.6215  -32.1138 N   0  0  0  0  0  0  0  0  0  0  0  0
  -27.7248   -8.9090  -31.1461 N   0  0  0  0  0  0  0  0  0  0  0  0
  -27.8300   -5.3151  -31.8693 C   0  0  0  0  0  0  0  0  0  0  0  0
  -28.3288   -4.9249  -30.6496 C   0  0  0  0  0  0  0  0  0  0  0  0
  -28.6041   -5.8580  -29.6557 C   0  0  0  0  0  0  0  0  0  0  0  0
  -28.3629   -7.1894  -29.9265 C   0  0  0  0  0  0  0  0  0  0  0  0
  -28.1245   -9.3941  -29.9460 C   0  0  0  0  0  0  0  0  0  0  0  0
  -28.5322   -8.3225  -29.1590 C   0  0  0  0  0  0  0  0  0  0  0  0
  -29.0254   -8.1798  -27.8847 N   0  0  0  0  0  0  0  0  0  0  0  0
  1  2  2  0
  1  3  1  0
  2  4  1  0
  4  5  2  0
  5  6  1  0
  6  7  2  0
  1  7  1  0
  3  8  1  0
  8  9  2  0
  7  9  1  0
  9 10  1  0
M  END
>  <name>  (130) 
Car Nac Nd0 Car Car Car Car Car Car Nd0

>  <indices>  (130) 
[0, 1, 2]

>  <tasks>  (130) 
probe_placing close_aromatic_ring close_aromatic_ring close_aromatic_ring close_aromatic_ring ring_built build_to_Nd0 close_aromatic_ring

>  <prot_clashes>  (130) 
0

>  <NBS phar>  (130) 
0.2

>  <NBS_non-phar>  (130) 
0.7751019795735677

>  <NBS>  (130) 
0.9751019795735678

>  <source_stage>  (130) 
scored

>  <source_iter>  (130) 
6

>  <source_parent_mol>  (130) 
0

>  <source_scenario>  (130) 
1 0 1 0 0 0

>  <source_rank_in_scored_call>  (130) 
0

>  <source_current_task>  (130) 
close_aromatic_ring

>  <scenario>  (130) 
1 0 1 0 0 0

>  <current_task>  (130) 
build_to_Nd0

>  <initiate_ring_bisect>  (130) 


>  <reason_to_skip>  (130) 
subgraph mismatch

$$$$

     RDKit          3D

 10 11  0  0  0  0  0  0  0  0999 V2000
  -27.8609   -7.5606  -31.1600 C   0  0  0  0  0  0  0  0  0  0  0  0
  -27.6012   -6.6215  -32.1138 N   0  0  0  0  0  0  0  0  0  0  0  0
  -27.7248   -8.9090  -31.1461 N   0  0  0  0  0  0  0  0  0  0  0  0
  -27.8300   -5.3151  -31.8693 C   0  0  0  0  0  0  0  0  0  0  0  0
  -28.3288   -4.9249  -30.6496 C   0  0  0  0  0  0  0  0  0  0  0  0
  -28.6041   -5.8580  -29.6557 C   0  0  0  0  0  0  0  0  0  0  0  0
  -28.3629   -7.1894  -29.9265 C   0  0  0  0  0  0  0  0  0  0  0  0
  -28.1245   -9.3941  -29.9460 C   0  0  0  0  0  0  0  0  0  0  0  0
  -28.5322   -8.3225  -29.1590 C   0  0  0  0  0  0  0  0  0  0  0  0
  -28.9825   -8.5811  -27.8871 N   0  0  0  0  0  0  0  0  0  0  0  0
  1  2  2  0
  1  3  1  0
  2  4  1  0
  4  5  2  0
  5  6  1  0
  6  7  2  0
  1  7  1  0
  3  8  1  0
  8  9  2  0
  7  9  1  0
  9 10  1  0
M  END
>  <name>  (131) 
Car Nac Nd0 Car Car Car Car Car Car Nd0

>  <indices>  (131) 
[0, 1, 2]

>  <tasks>  (131) 
probe_placing close_aromatic_ring close_aromatic_ring close_aromatic_ring close_aromatic_ring ring_built build_to_Nd0 close_aromatic_ring

>  <prot_clashes>  (131) 
0

>  <NBS phar>  (131) 
0.2

>  <NBS_non-phar>  (131) 
0.7751019795735677

>  <NBS>  (131) 
0.9751019795735678

>  <source_stage>  (131) 
scored

>  <source_iter>  (131) 
6

>  <source_parent_mol>  (131) 
0

>  <source_scenario>  (131) 
1 0 1 0 0 0

>  <source_rank_in_scored_call>  (131) 
0

>  <source_current_task>  (131) 
close_aromatic_ring

>  <scenario>  (131) 
1 0 1 0 0 0

>  <current_task>  (131) 
build_to_Nd0

>  <initiate_ring_bisect>  (131) 


>  <reason_to_skip>  (131) 
subgraph mismatch

$$$$

     RDKit          3D

 10 11  0  0  0  0  0  0  0  0999 V2000
  -27.8609   -7.5606  -31.1600 C   0  0  0  0  0  0  0  0  0  0  0  0
  -27.6012   -6.6215  -32.1138 N   0  0  0  0  0  0  0  0  0  0  0  0
  -27.7248   -8.9090  -31.1461 N   0  0  0  0  0  0  0  0  0  0  0  0
  -27.8300   -5.3151  -31.8693 C   0  0  0  0  0  0  0  0  0  0  0  0
  -28.3288   -4.9249  -30.6496 C   0  0  0  0  0  0  0  0  0  0  0  0
  -28.6041   -5.8580  -29.6557 C   0  0  0  0  0  0  0  0  0  0  0  0
  -28.3629   -7.1894  -29.9265 C   0  0  0  0  0  0  0  0  0  0  0  0
  -28.1245   -9.3941  -29.9460 C   0  0  0  0  0  0  0  0  0  0  0  0
  -28.5322   -8.3225  -29.1590 C   0  0  0  0  0  0  0  0  0  0  0  0
  -29.0069   -8.3808  -27.8780 N   0  0  0  0  0  0  0  0  0  0  0  0
  1  2  2  0
  1  3  1  0
  2  4  1  0
  4  5  2  0
  5  6  1  0
  6  7  2  0
  1  7  1  0
  3  8  1  0
  8  9  2  0
  7  9  1  0
  9 10  1  0
M  END
>  <name>  (132) 
Car Nac Nd0 Car Car Car Car Car Car Nac

>  <indices>  (132) 
[0, 1, 2]

>  <tasks>  (132) 
probe_placing close_aromatic_ring close_aromatic_ring close_aromatic_ring close_aromatic_ring ring_built build_to_Nd0 close_aromatic_ring

>  <prot_clashes>  (132) 
0

>  <NBS phar>  (132) 
0.2

>  <NBS_non-phar>  (132) 
0.7751019795735677

>  <NBS>  (132) 
0.9751019795735678

>  <source_stage>  (132) 
scored

>  <source_iter>  (132) 
6

>  <source_parent_mol>  (132) 
0

>  <source_scenario>  (132) 
1 0 1 0 0 0

>  <source_rank_in_scored_call>  (132) 
0

>  <source_current_task>  (132) 
close_aromatic_ring

>  <scenario>  (132) 
1 0 1 0 0 0

>  <current_task>  (132) 
build_to_Nac

>  <reason_to_skip>  (132) 
subgraph mismatch

$$$$

     RDKit          3D

 10 11  0  0  0  0  0  0  0  0999 V2000
  -27.8609   -7.5606  -31.1600 C   0  0  0  0  0  0  0  0  0  0  0  0
  -27.6012   -6.6215  -32.1138 N   0  0  0  0  0  0  0  0  0  0  0  0
  -27.7248   -8.9090  -31.1461 N   0  0  0  0  0  0  0  0  0  0  0  0
  -27.8300   -5.3151  -31.8693 C   0  0  0  0  0  0  0  0  0  0  0  0
  -28.3288   -4.9249  -30.6496 C   0  0  0  0  0  0  0  0  0  0  0  0
  -28.6041   -5.8580  -29.6557 C   0  0  0  0  0  0  0  0  0  0  0  0
  -28.3629   -7.1894  -29.9265 C   0  0  0  0  0  0  0  0  0  0  0  0
  -28.1245   -9.3941  -29.9460 C   0  0  0  0  0  0  0  0  0  0  0  0
  -28.5322   -8.3225  -29.1590 C   0  0  0  0  0  0  0  0  0  0  0  0
  -29.0231   -8.1805  -27.8907 N   0  0  0  0  0  0  0  0  0  0  0  0
  1  2  2  0
  1  3  1  0
  2  4  1  0
  4  5  2  0
  5  6  1  0
  6  7  2  0
  1  7  1  0
  3  8  1  0
  8  9  2  0
  7  9  1  0
  9 10  1  0
M  END
>  <name>  (133) 
Car Nac Nd0 Car Car Car Car Car Car Nac

>  <indices>  (133) 
[0, 1, 2]

>  <tasks>  (133) 
probe_placing close_aromatic_ring close_aromatic_ring close_aromatic_ring close_aromatic_ring ring_built build_to_Nd0 close_aromatic_ring

>  <prot_clashes>  (133) 
0

>  <NBS phar>  (133) 
0.2

>  <NBS_non-phar>  (133) 
0.7751019795735677

>  <NBS>  (133) 
0.9751019795735678

>  <source_stage>  (133) 
scored

>  <source_iter>  (133) 
6

>  <source_parent_mol>  (133) 
0

>  <source_scenario>  (133) 
1 0 1 0 0 0

>  <source_rank_in_scored_call>  (133) 
0

>  <source_current_task>  (133) 
close_aromatic_ring

>  <scenario>  (133) 
1 0 1 0 0 0

>  <current_task>  (133) 
build_to_Nac

>  <initiate_ring_bisect>  (133) 


>  <reason_to_skip>  (133) 
subgraph mismatch

$$$$

     RDKit          3D

 10 11  0  0  0  0  0  0  0  0999 V2000
  -27.8609   -7.5606  -31.1600 C   0  0  0  0  0  0  0  0  0  0  0  0
  -27.6012   -6.6215  -32.1138 N   0  0  0  0  0  0  0  0  0  0  0  0
  -27.7248   -8.9090  -31.1461 N   0  0  0  0  0  0  0  0  0  0  0  0
  -27.8300   -5.3151  -31.8693 C   0  0  0  0  0  0  0  0  0  0  0  0
  -28.3288   -4.9249  -30.6496 C   0  0  0  0  0  0  0  0  0  0  0  0
  -28.6041   -5.8580  -29.6557 C   0  0  0  0  0  0  0  0  0  0  0  0
  -28.3629   -7.1894  -29.9265 C   0  0  0  0  0  0  0  0  0  0  0  0
  -28.1245   -9.3941  -29.9460 C   0  0  0  0  0  0  0  0  0  0  0  0
  -28.5322   -8.3225  -29.1590 C   0  0  0  0  0  0  0  0  0  0  0  0
  -28.9804   -8.5799  -27.8931 N   0  0  0  0  0  0  0  0  0  0  0  0
  1  2  2  0
  1  3  1  0
  2  4  1  0
  4  5  2  0
  5  6  1  0
  6  7  2  0
  1  7  1  0
  3  8  1  0
  8  9  2  0
  7  9  1  0
  9 10  1  0
M  END
>  <name>  (134) 
Car Nac Nd0 Car Car Car Car Car Car Nac

>  <indices>  (134) 
[0, 1, 2]

>  <tasks>  (134) 
probe_placing close_aromatic_ring close_aromatic_ring close_aromatic_ring close_aromatic_ring ring_built build_to_Nd0 close_aromatic_ring

>  <prot_clashes>  (134) 
0

>  <NBS phar>  (134) 
0.2

>  <NBS_non-phar>  (134) 
0.7751019795735677

>  <NBS>  (134) 
0.9751019795735678

>  <source_stage>  (134) 
scored

>  <source_iter>  (134) 
6

>  <source_parent_mol>  (134) 
0

>  <source_scenario>  (134) 
1 0 1 0 0 0

>  <source_rank_in_scored_call>  (134) 
0

>  <source_current_task>  (134) 
close_aromatic_ring

>  <scenario>  (134) 
1 0 1 0 0 0

>  <current_task>  (134) 
build_to_Nac

>  <initiate_ring_bisect>  (134) 


>  <reason_to_skip>  (134) 
subgraph mismatch

$$$$

     RDKit          3D

 10 11  0  0  0  0  0  0  0  0999 V2000
  -27.8609   -7.5606  -31.1600 C   0  0  0  0  0  0  0  0  0  0  0  0
  -27.6012   -6.6215  -32.1138 N   0  0  0  0  0  0  0  0  0  0  0  0
  -27.7248   -8.9090  -31.1461 N   0  0  0  0  0  0  0  0  0  0  0  0
  -27.8300   -5.3151  -31.8693 C   0  0  0  0  0  0  0  0  0  0  0  0
  -28.3288   -4.9249  -30.6496 C   0  0  0  0  0  0  0  0  0  0  0  0
  -28.6041   -5.8580  -29.6557 C   0  0  0  0  0  0  0  0  0  0  0  0
  -28.3629   -7.1894  -29.9265 C   0  0  0  0  0  0  0  0  0  0  0  0
  -28.1245   -9.3941  -29.9460 C   0  0  0  0  0  0  0  0  0  0  0  0
  -28.5322   -8.3225  -29.1590 C   0  0  0  0  0  0  0  0  0  0  0  0
  -29.0408   -8.3850  -27.7864 C   0  0  0  0  0  0  0  0  0  0  0  0
  1  2  2  0
  1  3  1  0
  2  4  1  0
  4  5  2  0
  5  6  1  0
  6  7  2  0
  1  7  1  0
  3  8  1  0
  8  9  2  0
  7  9  1  0
  9 10  1  0
M  END
>  <name>  (135) 
Car Nac Nd0 Car Car Car Car Car Car C2r

>  <indices>  (135) 
[0, 1, 2]

>  <tasks>  (135) 
probe_placing close_aromatic_ring close_aromatic_ring close_aromatic_ring close_aromatic_ring ring_built build_to_Nd0 close_aromatic_ring

>  <prot_clashes>  (135) 
0

>  <NBS phar>  (135) 
0.2

>  <NBS_non-phar>  (135) 
0.7751019795735677

>  <NBS>  (135) 
0.9751019795735678

>  <source_stage>  (135) 
scored

>  <source_iter>  (135) 
6

>  <source_parent_mol>  (135) 
0

>  <source_scenario>  (135) 
1 0 1 0 0 0

>  <source_rank_in_scored_call>  (135) 
0

>  <source_current_task>  (135) 
close_aromatic_ring

>  <scenario>  (135) 
1 0 1 0 0 0

>  <current_task>  (135) 
close_aliphatic_ring

>  <reason_to_skip>  (135) 
subgraph mismatch

$$$$

     RDKit          3D

 10 11  0  0  0  0  0  0  0  0999 V2000
  -27.8609   -7.5606  -31.1600 C   0  0  0  0  0  0  0  0  0  0  0  0
  -27.6012   -6.6215  -32.1138 N   0  0  0  0  0  0  0  0  0  0  0  0
  -27.7248   -8.9090  -31.1461 N   0  0  0  0  0  0  0  0  0  0  0  0
  -27.8300   -5.3151  -31.8693 C   0  0  0  0  0  0  0  0  0  0  0  0
  -28.3288   -4.9249  -30.6496 C   0  0  0  0  0  0  0  0  0  0  0  0
  -28.6041   -5.8580  -29.6557 C   0  0  0  0  0  0  0  0  0  0  0  0
  -28.3629   -7.1894  -29.9265 C   0  0  0  0  0  0  0  0  0  0  0  0
  -28.1245   -9.3941  -29.9460 C   0  0  0  0  0  0  0  0  0  0  0  0
  -28.5322   -8.3225  -29.1590 C   0  0  0  0  0  0  0  0  0  0  0  0
  -29.0582   -8.1703  -27.8001 C   0  0  0  0  0  0  0  0  0  0  0  0
  1  2  2  0
  1  3  1  0
  2  4  1  0
  4  5  2  0
  5  6  1  0
  6  7  2  0
  1  7  1  0
  3  8  1  0
  8  9  2  0
  7  9  1  0
  9 10  1  0
M  END
>  <name>  (136) 
Car Nac Nd0 Car Car Car Car Car Car C2r

>  <indices>  (136) 
[0, 1, 2]

>  <tasks>  (136) 
probe_placing close_aromatic_ring close_aromatic_ring close_aromatic_ring close_aromatic_ring ring_built build_to_Nd0 close_aromatic_ring

>  <prot_clashes>  (136) 
0

>  <NBS phar>  (136) 
0.2

>  <NBS_non-phar>  (136) 
0.7751019795735677

>  <NBS>  (136) 
0.9751019795735678

>  <source_stage>  (136) 
scored

>  <source_iter>  (136) 
6

>  <source_parent_mol>  (136) 
0

>  <source_scenario>  (136) 
1 0 1 0 0 0

>  <source_rank_in_scored_call>  (136) 
0

>  <source_current_task>  (136) 
close_aromatic_ring

>  <scenario>  (136) 
1 0 1 0 0 0

>  <current_task>  (136) 
close_aliphatic_ring

>  <initiate_ring_bisect>  (136) 


>  <reason_to_skip>  (136) 
subgraph mismatch

$$$$

     RDKit          3D

 10 11  0  0  0  0  0  0  0  0999 V2000
  -27.8609   -7.5606  -31.1600 C   0  0  0  0  0  0  0  0  0  0  0  0
  -27.6012   -6.6215  -32.1138 N   0  0  0  0  0  0  0  0  0  0  0  0
  -27.7248   -8.9090  -31.1461 N   0  0  0  0  0  0  0  0  0  0  0  0
  -27.8300   -5.3151  -31.8693 C   0  0  0  0  0  0  0  0  0  0  0  0
  -28.3288   -4.9249  -30.6496 C   0  0  0  0  0  0  0  0  0  0  0  0
  -28.6041   -5.8580  -29.6557 C   0  0  0  0  0  0  0  0  0  0  0  0
  -28.3629   -7.1894  -29.9265 C   0  0  0  0  0  0  0  0  0  0  0  0
  -28.1245   -9.3941  -29.9460 C   0  0  0  0  0  0  0  0  0  0  0  0
  -28.5322   -8.3225  -29.1590 C   0  0  0  0  0  0  0  0  0  0  0  0
  -29.0124   -8.5983  -27.8026 C   0  0  0  0  0  0  0  0  0  0  0  0
  1  2  2  0
  1  3  1  0
  2  4  1  0
  4  5  2  0
  5  6  1  0
  6  7  2  0
  1  7  1  0
  3  8  1  0
  8  9  2  0
  7  9  1  0
  9 10  1  0
M  END
>  <name>  (137) 
Car Nac Nd0 Car Car Car Car Car Car C2r

>  <indices>  (137) 
[0, 1, 2]

>  <tasks>  (137) 
probe_placing close_aromatic_ring close_aromatic_ring close_aromatic_ring close_aromatic_ring ring_built build_to_Nd0 close_aromatic_ring

>  <prot_clashes>  (137) 
0

>  <NBS phar>  (137) 
0.2

>  <NBS_non-phar>  (137) 
0.7751019795735677

>  <NBS>  (137) 
0.9751019795735678

>  <source_stage>  (137) 
scored

>  <source_iter>  (137) 
6

>  <source_parent_mol>  (137) 
0

>  <source_scenario>  (137) 
1 0 1 0 0 0

>  <source_rank_in_scored_call>  (137) 
0

>  <source_current_task>  (137) 
close_aromatic_ring

>  <scenario>  (137) 
1 0 1 0 0 0

>  <current_task>  (137) 
close_aliphatic_ring

>  <initiate_ring_bisect>  (137) 


>  <reason_to_skip>  (137) 
subgraph mismatch

$$$$

     RDKit          3D

 11 12  0  0  0  0  0  0  0  0999 V2000
  -27.8609   -7.5606  -31.1600 C   0  0  0  0  0  0  0  0  0  0  0  0
  -27.6012   -6.6215  -32.1138 N   0  0  0  0  0  0  0  0  0  0  0  0
  -27.7248   -8.9090  -31.1461 N   0  0  0  0  0  0  0  0  0  0  0  0
  -27.8300   -5.3151  -31.8693 C   0  0  0  0  0  0  0  0  0  0  0  0
  -28.3288   -4.9249  -30.6496 C   0  0  0  0  0  0  0  0  0  0  0  0
  -28.6041   -5.8580  -29.6557 C   0  0  0  0  0  0  0  0  0  0  0  0
  -28.3629   -7.1894  -29.9265 C   0  0  0  0  0  0  0  0  0  0  0  0
  -28.1245   -9.3941  -29.9460 C   0  0  0  0  0  0  0  0  0  0  0  0
  -28.5322   -8.3225  -29.1590 C   0  0  0  0  0  0  0  0  0  0  0  0
  -28.4694   -3.5583  -30.6566 N   0  0  0  0  0  0  0  0  0  0  0  0
  -27.8278   -2.4168  -31.0063 C   0  0  0  0  0  0  0  0  0  0  0  0
  1  2  2  0
  1  3  1  0
  2  4  1  0
  4  5  2  0
  5  6  1  0
  6  7  2  0
  1  7  1  0
  3  8  1  0
  8  9  2  0
  7  9  1  0
  5 10  1  0
 10 11  1  0
M  END
>  <name>  (1) 
Car Nac Nd0 Car Car Car Car Car Car Nd0 C2r

>  <indices>  (1) 
[0, 1, 2]

>  <tasks>  (1) 
probe_placing close_aromatic_ring close_aromatic_ring close_aromatic_ring close_aromatic_ring ring_built build_to_Nd0 close_aromatic_ring no_task

>  <prot_clashes>  (1) 
0

>  <NBS phar>  (1) 
0.2

>  <NBS_non-phar>  (1) 
0.7226057052612305

>  <NBS>  (1) 
0.9226057052612304

>  <source_stage>  (1) 
scored

>  <source_iter>  (1) 
7

>  <source_parent_mol>  (1) 
0

>  <source_scenario>  (1) 
1 0 1 0 0 0 0

>  <source_rank_in_scored_call>  (1) 
0

>  <source_current_task>  (1) 
no_task

>  <scenario>  (1) 
1 0 1 0 0 0 0

>  <current_task>  (1) 
build_to_Nd0

>  <initiate_ring_bisect>  (1) 


>  <reason_to_skip>  (1) 
bad angles

$$$$

     RDKit          3D

 11 12  0  0  0  0  0  0  0  0999 V2000
  -27.8609   -7.5606  -31.1600 C   0  0  0  0  0  0  0  0  0  0  0  0
  -27.6012   -6.6215  -32.1138 N   0  0  0  0  0  0  0  0  0  0  0  0
  -27.7248   -8.9090  -31.1461 N   0  0  0  0  0  0  0  0  0  0  0  0
  -27.8300   -5.3151  -31.8693 C   0  0  0  0  0  0  0  0  0  0  0  0
  -28.3288   -4.9249  -30.6496 C   0  0  0  0  0  0  0  0  0  0  0  0
  -28.6041   -5.8580  -29.6557 C   0  0  0  0  0  0  0  0  0  0  0  0
  -28.3629   -7.1894  -29.9265 C   0  0  0  0  0  0  0  0  0  0  0  0
  -28.1245   -9.3941  -29.9460 C   0  0  0  0  0  0  0  0  0  0  0  0
  -28.5322   -8.3225  -29.1590 C   0  0  0  0  0  0  0  0  0  0  0  0
  -28.4694   -3.5583  -30.6566 N   0  0  0  0  0  0  0  0  0  0  0  0
    0.0000    0.0000    0.0000 C   0  0  0  0  0  0  0  0  0  0  0  0
  1  2  2  0
  1  3  1  0
  2  4  1  0
  4  5  2  0
  5  6  1  0
  6  7  2  0
  1  7  1  0
  3  8  1  0
  8  9  2  0
  7  9  1  0
  5 10  1  0
 10 11  1  0
M  END
>  <name>  (2) 
Car Nac Nd0 Car Car Car Car Car Car Nd0 C3r

>  <indices>  (2) 
[0, 1, 2]

>  <tasks>  (2) 
probe_placing close_aromatic_ring close_aromatic_ring close_aromatic_ring close_aromatic_ring ring_built build_to_Nd0 close_aromatic_ring no_task

>  <prot_clashes>  (2) 
0

>  <NBS phar>  (2) 
0.2

>  <NBS_non-phar>  (2) 
0.7226057052612305

>  <NBS>  (2) 
0.9226057052612304

>  <source_stage>  (2) 
scored

>  <source_iter>  (2) 
7

>  <source_parent_mol>  (2) 
0

>  <source_scenario>  (2) 
1 0 1 0 0 0 0

>  <source_rank_in_scored_call>  (2) 
0

>  <source_current_task>  (2) 
no_task

>  <scenario>  (2) 
1 0 1 0 0 0 0

>  <current_task>  (2) 
build_to_Nd0

>  <initiate_ring_bisect>  (2) 


>  <reason_to_skip>  (2) 
some_atom_counter_exceeded

$$$$

     RDKit          3D

 11 12  0  0  0  0  0  0  0  0999 V2000
  -27.8609   -7.5606  -31.1600 C   0  0  0  0  0  0  0  0  0  0  0  0
  -27.6012   -6.6215  -32.1138 N   0  0  0  0  0  0  0  0  0  0  0  0
  -27.7248   -8.9090  -31.1461 N   0  0  0  0  0  0  0  0  0  0  0  0
  -27.8300   -5.3151  -31.8693 C   0  0  0  0  0  0  0  0  0  0  0  0
  -28.3288   -4.9249  -30.6496 C   0  0  0  0  0  0  0  0  0  0  0  0
  -28.6041   -5.8580  -29.6557 C   0  0  0  0  0  0  0  0  0  0  0  0
  -28.3629   -7.1894  -29.9265 C   0  0  0  0  0  0  0  0  0  0  0  0
  -28.1245   -9.3941  -29.9460 C   0  0  0  0  0  0  0  0  0  0  0  0
  -28.5322   -8.3225  -29.1590 C   0  0  0  0  0  0  0  0  0  0  0  0
  -28.4694   -3.5583  -30.6566 N   0  0  0  0  0  0  0  0  0  0  0  0
    0.0000    0.0000    0.0000 C   0  0  0  0  0  0  0  0  0  0  0  0
  1  2  2  0
  1  3  1  0
  2  4  1  0
  4  5  2  0
  5  6  1  0
  6  7  2  0
  1  7  1  0
  3  8  1  0
  8  9  2  0
  7  9  1  0
  5 10  1  0
 10 11  1  0
M  END
>  <name>  (3) 
Car Nac Nd0 Car Car Car Car Car Car Nd0 C3r

>  <indices>  (3) 
[0, 1, 2]

>  <tasks>  (3) 
probe_placing close_aromatic_ring close_aromatic_ring close_aromatic_ring close_aromatic_ring ring_built build_to_Nd0 close_aromatic_ring no_task

>  <prot_clashes>  (3) 
0

>  <NBS phar>  (3) 
0.2

>  <NBS_non-phar>  (3) 
0.7226057052612305

>  <NBS>  (3) 
0.9226057052612304

>  <source_stage>  (3) 
scored

>  <source_iter>  (3) 
7

>  <source_parent_mol>  (3) 
0

>  <source_scenario>  (3) 
1 0 1 0 0 0 0

>  <source_rank_in_scored_call>  (3) 
0

>  <source_current_task>  (3) 
no_task

>  <scenario>  (3) 
1 0 1 0 0 0 0

>  <current_task>  (3) 
build_to_Nd0

>  <initiate_ring_bisect>  (3) 


>  <reason_to_skip>  (3) 
some_atom_counter_exceeded

$$$$

     RDKit          3D

 11 12  0  0  0  0  0  0  0  0999 V2000
  -27.8609   -7.5606  -31.1600 C   0  0  0  0  0  0  0  0  0  0  0  0
  -27.6012   -6.6215  -32.1138 N   0  0  0  0  0  0  0  0  0  0  0  0
  -27.7248   -8.9090  -31.1461 N   0  0  0  0  0  0  0  0  0  0  0  0
  -27.8300   -5.3151  -31.8693 C   0  0  0  0  0  0  0  0  0  0  0  0
  -28.3288   -4.9249  -30.6496 C   0  0  0  0  0  0  0  0  0  0  0  0
  -28.6041   -5.8580  -29.6557 C   0  0  0  0  0  0  0  0  0  0  0  0
  -28.3629   -7.1894  -29.9265 C   0  0  0  0  0  0  0  0  0  0  0  0
  -28.1245   -9.3941  -29.9460 C   0  0  0  0  0  0  0  0  0  0  0  0
  -28.5322   -8.3225  -29.1590 C   0  0  0  0  0  0  0  0  0  0  0  0
  -28.4694   -3.5583  -30.6566 N   0  0  0  0  0  0  0  0  0  0  0  0
    0.0000    0.0000    0.0000 C   0  0  0  0  0  0  0  0  0  0  0  0
  1  2  2  0
  1  3  1  0
  2  4  1  0
  4  5  2  0
  5  6  1  0
  6  7  2  0
  1  7  1  0
  3  8  1  0
  8  9  2  0
  7  9  1  0
  5 10  1  0
 10 11  1  0
M  END
>  <name>  (4) 
Car Nac Nd0 Car Car Car Car Car Car Nd0 C3r

>  <indices>  (4) 
[0, 1, 2]

>  <tasks>  (4) 
probe_placing close_aromatic_ring close_aromatic_ring close_aromatic_ring close_aromatic_ring ring_built build_to_Nd0 close_aromatic_ring no_task

>  <prot_clashes>  (4) 
0

>  <NBS phar>  (4) 
0.2

>  <NBS_non-phar>  (4) 
0.7226057052612305

>  <NBS>  (4) 
0.9226057052612304

>  <source_stage>  (4) 
scored

>  <source_iter>  (4) 
7

>  <source_parent_mol>  (4) 
0

>  <source_scenario>  (4) 
1 0 1 0 0 0 0

>  <source_rank_in_scored_call>  (4) 
0

>  <source_current_task>  (4) 
no_task

>  <scenario>  (4) 
1 0 1 0 0 0 0

>  <current_task>  (4) 
build_to_Nd0

>  <initiate_ring_bisect>  (4) 


>  <reason_to_skip>  (4) 
some_atom_counter_exceeded

$$$$

     RDKit          3D

 11 12  0  0  0  0  0  0  0  0999 V2000
  -27.8609   -7.5606  -31.1600 C   0  0  0  0  0  0  0  0  0  0  0  0
  -27.6012   -6.6215  -32.1138 N   0  0  0  0  0  0  0  0  0  0  0  0
  -27.7248   -8.9090  -31.1461 N   0  0  0  0  0  0  0  0  0  0  0  0
  -27.8300   -5.3151  -31.8693 C   0  0  0  0  0  0  0  0  0  0  0  0
  -28.3288   -4.9249  -30.6496 C   0  0  0  0  0  0  0  0  0  0  0  0
  -28.6041   -5.8580  -29.6557 C   0  0  0  0  0  0  0  0  0  0  0  0
  -28.3629   -7.1894  -29.9265 C   0  0  0  0  0  0  0  0  0  0  0  0
  -28.1245   -9.3941  -29.9460 C   0  0  0  0  0  0  0  0  0  0  0  0
  -28.5322   -8.3225  -29.1590 C   0  0  0  0  0  0  0  0  0  0  0  0
  -28.4694   -3.5583  -30.6566 N   0  0  0  0  0  0  0  0  0  0  0  0
    0.0000    0.0000    0.0000 C   0  0  0  0  0  0  0  0  0  0  0  0
  1  2  2  0
  1  3  1  0
  2  4  1  0
  4  5  2  0
  5  6  1  0
  6  7  2  0
  1  7  1  0
  3  8  1  0
  8  9  2  0
  7  9  1  0
  5 10  1  0
 10 11  1  0
M  END
>  <name>  (5) 
Car Nac Nd0 Car Car Car Car Car Car Nd0 C3r

>  <indices>  (5) 
[0, 1, 2]

>  <tasks>  (5) 
probe_placing close_aromatic_ring close_aromatic_ring close_aromatic_ring close_aromatic_ring ring_built build_to_Nd0 close_aromatic_ring no_task

>  <prot_clashes>  (5) 
0

>  <NBS phar>  (5) 
0.2

>  <NBS_non-phar>  (5) 
0.7226057052612305

>  <NBS>  (5) 
0.9226057052612304

>  <source_stage>  (5) 
scored

>  <source_iter>  (5) 
7

>  <source_parent_mol>  (5) 
0

>  <source_scenario>  (5) 
1 0 1 0 0 0 0

>  <source_rank_in_scored_call>  (5) 
0

>  <source_current_task>  (5) 
no_task

>  <scenario>  (5) 
1 0 1 0 0 0 0

>  <current_task>  (5) 
build_to_Nd0

>  <initiate_ring_bisect>  (5) 


>  <reason_to_skip>  (5) 
some_atom_counter_exceeded

$$$$

     RDKit          3D

 11 12  0  0  0  0  0  0  0  0999 V2000
  -27.8609   -7.5606  -31.1600 C   0  0  0  0  0  0  0  0  0  0  0  0
  -27.6012   -6.6215  -32.1138 N   0  0  0  0  0  0  0  0  0  0  0  0
  -27.7248   -8.9090  -31.1461 N   0  0  0  0  0  0  0  0  0  0  0  0
  -27.8300   -5.3151  -31.8693 C   0  0  0  0  0  0  0  0  0  0  0  0
  -28.3288   -4.9249  -30.6496 C   0  0  0  0  0  0  0  0  0  0  0  0
  -28.6041   -5.8580  -29.6557 C   0  0  0  0  0  0  0  0  0  0  0  0
  -28.3629   -7.1894  -29.9265 C   0  0  0  0  0  0  0  0  0  0  0  0
  -28.1245   -9.3941  -29.9460 C   0  0  0  0  0  0  0  0  0  0  0  0
  -28.5322   -8.3225  -29.1590 C   0  0  0  0  0  0  0  0  0  0  0  0
  -28.4694   -3.5583  -30.6566 N   0  0  0  0  0  0  0  0  0  0  0  0
    0.0000    0.0000    0.0000 C   0  0  0  0  0  0  0  0  0  0  0  0
  1  2  2  0
  1  3  1  0
  2  4  1  0
  4  5  2  0
  5  6  1  0
  6  7  2  0
  1  7  1  0
  3  8  1  0
  8  9  2  0
  7  9  1  0
  5 10  1  0
 10 11  1  0
M  END
>  <name>  (6) 
Car Nac Nd0 Car Car Car Car Car Car Nd0 C3r

>  <indices>  (6) 
[0, 1, 2]

>  <tasks>  (6) 
probe_placing close_aromatic_ring close_aromatic_ring close_aromatic_ring close_aromatic_ring ring_built build_to_Nd0 close_aromatic_ring no_task

>  <prot_clashes>  (6) 
0

>  <NBS phar>  (6) 
0.2

>  <NBS_non-phar>  (6) 
0.7226057052612305

>  <NBS>  (6) 
0.9226057052612304

>  <source_stage>  (6) 
scored

>  <source_iter>  (6) 
7

>  <source_parent_mol>  (6) 
0

>  <source_scenario>  (6) 
1 0 1 0 0 0 0

>  <source_rank_in_scored_call>  (6) 
0

>  <source_current_task>  (6) 
no_task

>  <scenario>  (6) 
1 0 1 0 0 0 0

>  <current_task>  (6) 
build_to_Nd0

>  <initiate_ring_bisect>  (6) 


>  <reason_to_skip>  (6) 
some_atom_counter_exceeded

$$$$

     RDKit          3D

 11 12  0  0  0  0  0  0  0  0999 V2000
  -27.8609   -7.5606  -31.1600 C   0  0  0  0  0  0  0  0  0  0  0  0
  -27.6012   -6.6215  -32.1138 N   0  0  0  0  0  0  0  0  0  0  0  0
  -27.7248   -8.9090  -31.1461 N   0  0  0  0  0  0  0  0  0  0  0  0
  -27.8300   -5.3151  -31.8693 C   0  0  0  0  0  0  0  0  0  0  0  0
  -28.3288   -4.9249  -30.6496 C   0  0  0  0  0  0  0  0  0  0  0  0
  -28.6041   -5.8580  -29.6557 C   0  0  0  0  0  0  0  0  0  0  0  0
  -28.3629   -7.1894  -29.9265 C   0  0  0  0  0  0  0  0  0  0  0  0
  -28.1245   -9.3941  -29.9460 C   0  0  0  0  0  0  0  0  0  0  0  0
  -28.5322   -8.3225  -29.1590 C   0  0  0  0  0  0  0  0  0  0  0  0
  -28.4694   -3.5583  -30.6566 N   0  0  0  0  0  0  0  0  0  0  0  0
    0.0000    0.0000    0.0000 C   0  0  0  0  0  0  0  0  0  0  0  0
  1  2  2  0
  1  3  1  0
  2  4  1  0
  4  5  2  0
  5  6  1  0
  6  7  2  0
  1  7  1  0
  3  8  1  0
  8  9  2  0
  7  9  1  0
  5 10  1  0
 10 11  1  0
M  END
>  <name>  (7) 
Car Nac Nd0 Car Car Car Car Car Car Nd0 C3r

>  <indices>  (7) 
[0, 1, 2]

>  <tasks>  (7) 
probe_placing close_aromatic_ring close_aromatic_ring close_aromatic_ring close_aromatic_ring ring_built build_to_Nd0 close_aromatic_ring no_task

>  <prot_clashes>  (7) 
0

>  <NBS phar>  (7) 
0.2

>  <NBS_non-phar>  (7) 
0.7226057052612305

>  <NBS>  (7) 
0.9226057052612304

>  <source_stage>  (7) 
scored

>  <source_iter>  (7) 
7

>  <source_parent_mol>  (7) 
0

>  <source_scenario>  (7) 
1 0 1 0 0 0 0

>  <source_rank_in_scored_call>  (7) 
0

>  <source_current_task>  (7) 
no_task

>  <scenario>  (7) 
1 0 1 0 0 0 0

>  <current_task>  (7) 
build_to_Nd0

>  <initiate_ring_bisect>  (7) 


>  <reason_to_skip>  (7) 
some_atom_counter_exceeded

$$$$

     RDKit          3D

 11 12  0  0  0  0  0  0  0  0999 V2000
  -27.8609   -7.5606  -31.1600 C   0  0  0  0  0  0  0  0  0  0  0  0
  -27.6012   -6.6215  -32.1138 N   0  0  0  0  0  0  0  0  0  0  0  0
  -27.7248   -8.9090  -31.1461 N   0  0  0  0  0  0  0  0  0  0  0  0
  -27.8300   -5.3151  -31.8693 C   0  0  0  0  0  0  0  0  0  0  0  0
  -28.3288   -4.9249  -30.6496 C   0  0  0  0  0  0  0  0  0  0  0  0
  -28.6041   -5.8580  -29.6557 C   0  0  0  0  0  0  0  0  0  0  0  0
  -28.3629   -7.1894  -29.9265 C   0  0  0  0  0  0  0  0  0  0  0  0
  -28.1245   -9.3941  -29.9460 C   0  0  0  0  0  0  0  0  0  0  0  0
  -28.5322   -8.3225  -29.1590 C   0  0  0  0  0  0  0  0  0  0  0  0
  -28.4694   -3.5583  -30.6566 N   0  0  0  0  0  0  0  0  0  0  0  0
    0.0000    0.0000    0.0000 C   0  0  0  0  0  0  0  0  0  0  0  0
  1  2  2  0
  1  3  1  0
  2  4  1  0
  4  5  2  0
  5  6  1  0
  6  7  2  0
  1  7  1  0
  3  8  1  0
  8  9  2  0
  7  9  1  0
  5 10  1  0
 10 11  1  0
M  END
>  <name>  (8) 
Car Nac Nd0 Car Car Car Car Car Car Nd0 C3r

>  <indices>  (8) 
[0, 1, 2]

>  <tasks>  (8) 
probe_placing close_aromatic_ring close_aromatic_ring close_aromatic_ring close_aromatic_ring ring_built build_to_Nd0 close_aromatic_ring no_task

>  <prot_clashes>  (8) 
0

>  <NBS phar>  (8) 
0.2

>  <NBS_non-phar>  (8) 
0.7226057052612305

>  <NBS>  (8) 
0.9226057052612304

>  <source_stage>  (8) 
scored

>  <source_iter>  (8) 
7

>  <source_parent_mol>  (8) 
0

>  <source_scenario>  (8) 
1 0 1 0 0 0 0

>  <source_rank_in_scored_call>  (8) 
0

>  <source_current_task>  (8) 
no_task

>  <scenario>  (8) 
1 0 1 0 0 0 0

>  <current_task>  (8) 
build_to_Nd0

>  <initiate_ring_bisect>  (8) 


>  <reason_to_skip>  (8) 
some_atom_counter_exceeded

$$$$

     RDKit          3D

 11 12  0  0  0  0  0  0  0  0999 V2000
  -27.8609   -7.5606  -31.1600 C   0  0  0  0  0  0  0  0  0  0  0  0
  -27.6012   -6.6215  -32.1138 N   0  0  0  0  0  0  0  0  0  0  0  0
  -27.7248   -8.9090  -31.1461 N   0  0  0  0  0  0  0  0  0  0  0  0
  -27.8300   -5.3151  -31.8693 C   0  0  0  0  0  0  0  0  0  0  0  0
  -28.3288   -4.9249  -30.6496 C   0  0  0  0  0  0  0  0  0  0  0  0
  -28.6041   -5.8580  -29.6557 C   0  0  0  0  0  0  0  0  0  0  0  0
  -28.3629   -7.1894  -29.9265 C   0  0  0  0  0  0  0  0  0  0  0  0
  -28.1245   -9.3941  -29.9460 C   0  0  0  0  0  0  0  0  0  0  0  0
  -28.5322   -8.3225  -29.1590 C   0  0  0  0  0  0  0  0  0  0  0  0
  -28.4694   -3.5583  -30.6566 N   0  0  0  0  0  0  0  0  0  0  0  0
    0.0000    0.0000    0.0000 C   0  0  0  0  0  0  0  0  0  0  0  0
  1  2  2  0
  1  3  1  0
  2  4  1  0
  4  5  2  0
  5  6  1  0
  6  7  2  0
  1  7  1  0
  3  8  1  0
  8  9  2  0
  7  9  1  0
  5 10  1  0
 10 11  1  0
M  END
>  <name>  (9) 
Car Nac Nd0 Car Car Car Car Car Car Nd0 C3r

>  <indices>  (9) 
[0, 1, 2]

>  <tasks>  (9) 
probe_placing close_aromatic_ring close_aromatic_ring close_aromatic_ring close_aromatic_ring ring_built build_to_Nd0 close_aromatic_ring no_task

>  <prot_clashes>  (9) 
0

>  <NBS phar>  (9) 
0.2

>  <NBS_non-phar>  (9) 
0.7226057052612305

>  <NBS>  (9) 
0.9226057052612304

>  <source_stage>  (9) 
scored

>  <source_iter>  (9) 
7

>  <source_parent_mol>  (9) 
0

>  <source_scenario>  (9) 
1 0 1 0 0 0 0

>  <source_rank_in_scored_call>  (9) 
0

>  <source_current_task>  (9) 
no_task

>  <scenario>  (9) 
1 0 1 0 0 0 0

>  <current_task>  (9) 
build_to_Nd0

>  <initiate_ring_bisect>  (9) 


>  <reason_to_skip>  (9) 
some_atom_counter_exceeded

$$$$

     RDKit          3D

 11 12  0  0  0  0  0  0  0  0999 V2000
  -27.8609   -7.5606  -31.1600 C   0  0  0  0  0  0  0  0  0  0  0  0
  -27.6012   -6.6215  -32.1138 N   0  0  0  0  0  0  0  0  0  0  0  0
  -27.7248   -8.9090  -31.1461 N   0  0  0  0  0  0  0  0  0  0  0  0
  -27.8300   -5.3151  -31.8693 C   0  0  0  0  0  0  0  0  0  0  0  0
  -28.3288   -4.9249  -30.6496 C   0  0  0  0  0  0  0  0  0  0  0  0
  -28.6041   -5.8580  -29.6557 C   0  0  0  0  0  0  0  0  0  0  0  0
  -28.3629   -7.1894  -29.9265 C   0  0  0  0  0  0  0  0  0  0  0  0
  -28.1245   -9.3941  -29.9460 C   0  0  0  0  0  0  0  0  0  0  0  0
  -28.5322   -8.3225  -29.1590 C   0  0  0  0  0  0  0  0  0  0  0  0
  -28.4694   -3.5583  -30.6566 N   0  0  0  0  0  0  0  0  0  0  0  0
  -29.5492   -2.7476  -31.0912 C   0  0  0  0  0  0  0  0  0  0  0  0
  1  2  2  0
  1  3  1  0
  2  4  1  0
  4  5  2  0
  5  6  1  0
  6  7  2  0
  1  7  1  0
  3  8  1  0
  8  9  2  0
  7  9  1  0
  5 10  1  0
 10 11  1  0
M  END
>  <name>  (10) 
Car Nac Nd0 Car Car Car Car Car Car Nd0 C2r

>  <indices>  (10) 
[0, 1, 2]

>  <tasks>  (10) 
probe_placing close_aromatic_ring close_aromatic_ring close_aromatic_ring close_aromatic_ring ring_built build_to_Nd0 close_aromatic_ring no_task

>  <prot_clashes>  (10) 
0

>  <NBS phar>  (10) 
0.2

>  <NBS_non-phar>  (10) 
0.7226057052612305

>  <NBS>  (10) 
0.9226057052612304

>  <source_stage>  (10) 
scored

>  <source_iter>  (10) 
7

>  <source_parent_mol>  (10) 
0

>  <source_scenario>  (10) 
1 0 1 0 0 0 0

>  <source_rank_in_scored_call>  (10) 
0

>  <source_current_task>  (10) 
no_task

>  <scenario>  (10) 
1 0 1 0 0 0 0

>  <current_task>  (10) 
build_to_Nd0

>  <initiate_ring_bisect>  (10) 


>  <reason_to_skip>  (10) 
bad dihedral

$$$$

     RDKit          3D

 11 12  0  0  0  0  0  0  0  0999 V2000
  -27.8609   -7.5606  -31.1600 C   0  0  0  0  0  0  0  0  0  0  0  0
  -27.6012   -6.6215  -32.1138 N   0  0  0  0  0  0  0  0  0  0  0  0
  -27.7248   -8.9090  -31.1461 N   0  0  0  0  0  0  0  0  0  0  0  0
  -27.8300   -5.3151  -31.8693 C   0  0  0  0  0  0  0  0  0  0  0  0
  -28.3288   -4.9249  -30.6496 C   0  0  0  0  0  0  0  0  0  0  0  0
  -28.6041   -5.8580  -29.6557 C   0  0  0  0  0  0  0  0  0  0  0  0
  -28.3629   -7.1894  -29.9265 C   0  0  0  0  0  0  0  0  0  0  0  0
  -28.1245   -9.3941  -29.9460 C   0  0  0  0  0  0  0  0  0  0  0  0
  -28.5322   -8.3225  -29.1590 C   0  0  0  0  0  0  0  0  0  0  0  0
  -28.4694   -3.5583  -30.6566 N   0  0  0  0  0  0  0  0  0  0  0  0
  -27.7932   -2.5241  -31.0820 C   0  0  0  0  0  0  0  0  0  0  0  0
  1  2  2  0
  1  3  1  0
  2  4  1  0
  4  5  2  0
  5  6  1  0
  6  7  2  0
  1  7  1  0
  3  8  1  0
  8  9  2  0
  7  9  1  0
  5 10  1  0
 10 11  1  0
M  END
>  <name>  (11) 
Car Nac Nd0 Car Car Car Car Car Car Nd0 C2r

>  <indices>  (11) 
[0, 1, 2]

>  <tasks>  (11) 
probe_placing close_aromatic_ring close_aromatic_ring close_aromatic_ring close_aromatic_ring ring_built build_to_Nd0 close_aromatic_ring no_task

>  <prot_clashes>  (11) 
0

>  <NBS phar>  (11) 
0.2

>  <NBS_non-phar>  (11) 
0.7226057052612305

>  <NBS>  (11) 
0.9226057052612304

>  <source_stage>  (11) 
scored

>  <source_iter>  (11) 
7

>  <source_parent_mol>  (11) 
0

>  <source_scenario>  (11) 
1 0 1 0 0 0 0

>  <source_rank_in_scored_call>  (11) 
0

>  <source_current_task>  (11) 
no_task

>  <scenario>  (11) 
1 0 1 0 0 0 0

>  <current_task>  (11) 
build_to_Nd0

>  <initiate_ring_bisect>  (11) 


>  <reason_to_skip>  (11) 
bad angles

$$$$

     RDKit          3D

 11 12  0  0  0  0  0  0  0  0999 V2000
  -27.8609   -7.5606  -31.1600 C   0  0  0  0  0  0  0  0  0  0  0  0
  -27.6012   -6.6215  -32.1138 N   0  0  0  0  0  0  0  0  0  0  0  0
  -27.7248   -8.9090  -31.1461 N   0  0  0  0  0  0  0  0  0  0  0  0
  -27.8300   -5.3151  -31.8693 C   0  0  0  0  0  0  0  0  0  0  0  0
  -28.3288   -4.9249  -30.6496 C   0  0  0  0  0  0  0  0  0  0  0  0
  -28.6041   -5.8580  -29.6557 C   0  0  0  0  0  0  0  0  0  0  0  0
  -28.3629   -7.1894  -29.9265 C   0  0  0  0  0  0  0  0  0  0  0  0
  -28.1245   -9.3941  -29.9460 C   0  0  0  0  0  0  0  0  0  0  0  0
  -28.5322   -8.3225  -29.1590 C   0  0  0  0  0  0  0  0  0  0  0  0
  -28.4694   -3.5583  -30.6566 N   0  0  0  0  0  0  0  0  0  0  0  0
    0.0000    0.0000    0.0000 C   0  0  0  0  0  0  0  0  0  0  0  0
  1  2  2  0
  1  3  1  0
  2  4  1  0
  4  5  2  0
  5  6  1  0
  6  7  2  0
  1  7  1  0
  3  8  1  0
  8  9  2  0
  7  9  1  0
  5 10  1  0
 10 11  1  0
M  END
>  <name>  (12) 
Car Nac Nd0 Car Car Car Car Car Car Nd0 C3r

>  <indices>  (12) 
[0, 1, 2]

>  <tasks>  (12) 
probe_placing close_aromatic_ring close_aromatic_ring close_aromatic_ring close_aromatic_ring ring_built build_to_Nd0 close_aromatic_ring no_task

>  <prot_clashes>  (12) 
0

>  <NBS phar>  (12) 
0.2

>  <NBS_non-phar>  (12) 
0.7226057052612305

>  <NBS>  (12) 
0.9226057052612304

>  <source_stage>  (12) 
scored

>  <source_iter>  (12) 
7

>  <source_parent_mol>  (12) 
0

>  <source_scenario>  (12) 
1 0 1 0 0 0 0

>  <source_rank_in_scored_call>  (12) 
0

>  <source_current_task>  (12) 
no_task

>  <scenario>  (12) 
1 0 1 0 0 0 0

>  <current_task>  (12) 
build_to_Nd0

>  <initiate_ring_bisect>  (12) 


>  <reason_to_skip>  (12) 
some_atom_counter_exceeded

$$$$

     RDKit          3D

 11 12  0  0  0  0  0  0  0  0999 V2000
  -27.8609   -7.5606  -31.1600 C   0  0  0  0  0  0  0  0  0  0  0  0
  -27.6012   -6.6215  -32.1138 N   0  0  0  0  0  0  0  0  0  0  0  0
  -27.7248   -8.9090  -31.1461 N   0  0  0  0  0  0  0  0  0  0  0  0
  -27.8300   -5.3151  -31.8693 C   0  0  0  0  0  0  0  0  0  0  0  0
  -28.3288   -4.9249  -30.6496 C   0  0  0  0  0  0  0  0  0  0  0  0
  -28.6041   -5.8580  -29.6557 C   0  0  0  0  0  0  0  0  0  0  0  0
  -28.3629   -7.1894  -29.9265 C   0  0  0  0  0  0  0  0  0  0  0  0
  -28.1245   -9.3941  -29.9460 C   0  0  0  0  0  0  0  0  0  0  0  0
  -28.5322   -8.3225  -29.1590 C   0  0  0  0  0  0  0  0  0  0  0  0
  -28.4694   -3.5583  -30.6566 N   0  0  0  0  0  0  0  0  0  0  0  0
    0.0000    0.0000    0.0000 C   0  0  0  0  0  0  0  0  0  0  0  0
  1  2  2  0
  1  3  1  0
  2  4  1  0
  4  5  2  0
  5  6  1  0
  6  7  2  0
  1  7  1  0
  3  8  1  0
  8  9  2  0
  7  9  1  0
  5 10  1  0
 10 11  1  0
M  END
>  <name>  (13) 
Car Nac Nd0 Car Car Car Car Car Car Nd0 C3r

>  <indices>  (13) 
[0, 1, 2]

>  <tasks>  (13) 
probe_placing close_aromatic_ring close_aromatic_ring close_aromatic_ring close_aromatic_ring ring_built build_to_Nd0 close_aromatic_ring no_task

>  <prot_clashes>  (13) 
0

>  <NBS phar>  (13) 
0.2

>  <NBS_non-phar>  (13) 
0.7226057052612305

>  <NBS>  (13) 
0.9226057052612304

>  <source_stage>  (13) 
scored

>  <source_iter>  (13) 
7

>  <source_parent_mol>  (13) 
0

>  <source_scenario>  (13) 
1 0 1 0 0 0 0

>  <source_rank_in_scored_call>  (13) 
0

>  <source_current_task>  (13) 
no_task

>  <scenario>  (13) 
1 0 1 0 0 0 0

>  <current_task>  (13) 
build_to_Nd0

>  <initiate_ring_bisect>  (13) 


>  <reason_to_skip>  (13) 
some_atom_counter_exceeded

$$$$

     RDKit          3D

 11 12  0  0  0  0  0  0  0  0999 V2000
  -27.8609   -7.5606  -31.1600 C   0  0  0  0  0  0  0  0  0  0  0  0
  -27.6012   -6.6215  -32.1138 N   0  0  0  0  0  0  0  0  0  0  0  0
  -27.7248   -8.9090  -31.1461 N   0  0  0  0  0  0  0  0  0  0  0  0
  -27.8300   -5.3151  -31.8693 C   0  0  0  0  0  0  0  0  0  0  0  0
  -28.3288   -4.9249  -30.6496 C   0  0  0  0  0  0  0  0  0  0  0  0
  -28.6041   -5.8580  -29.6557 C   0  0  0  0  0  0  0  0  0  0  0  0
  -28.3629   -7.1894  -29.9265 C   0  0  0  0  0  0  0  0  0  0  0  0
  -28.1245   -9.3941  -29.9460 C   0  0  0  0  0  0  0  0  0  0  0  0
  -28.5322   -8.3225  -29.1590 C   0  0  0  0  0  0  0  0  0  0  0  0
  -28.4694   -3.5583  -30.6566 N   0  0  0  0  0  0  0  0  0  0  0  0
    0.0000    0.0000    0.0000 C   0  0  0  0  0  0  0  0  0  0  0  0
  1  2  2  0
  1  3  1  0
  2  4  1  0
  4  5  2  0
  5  6  1  0
  6  7  2  0
  1  7  1  0
  3  8  1  0
  8  9  2  0
  7  9  1  0
  5 10  1  0
 10 11  1  0
M  END
>  <name>  (14) 
Car Nac Nd0 Car Car Car Car Car Car Nd0 C3r

>  <indices>  (14) 
[0, 1, 2]

>  <tasks>  (14) 
probe_placing close_aromatic_ring close_aromatic_ring close_aromatic_ring close_aromatic_ring ring_built build_to_Nd0 close_aromatic_ring no_task

>  <prot_clashes>  (14) 
0

>  <NBS phar>  (14) 
0.2

>  <NBS_non-phar>  (14) 
0.7226057052612305

>  <NBS>  (14) 
0.9226057052612304

>  <source_stage>  (14) 
scored

>  <source_iter>  (14) 
7

>  <source_parent_mol>  (14) 
0

>  <source_scenario>  (14) 
1 0 1 0 0 0 0

>  <source_rank_in_scored_call>  (14) 
0

>  <source_current_task>  (14) 
no_task

>  <scenario>  (14) 
1 0 1 0 0 0 0

>  <current_task>  (14) 
build_to_Nd0

>  <initiate_ring_bisect>  (14) 


>  <reason_to_skip>  (14) 
some_atom_counter_exceeded

$$$$

     RDKit          3D

 11 12  0  0  0  0  0  0  0  0999 V2000
  -27.8609   -7.5606  -31.1600 C   0  0  0  0  0  0  0  0  0  0  0  0
  -27.6012   -6.6215  -32.1138 N   0  0  0  0  0  0  0  0  0  0  0  0
  -27.7248   -8.9090  -31.1461 N   0  0  0  0  0  0  0  0  0  0  0  0
  -27.8300   -5.3151  -31.8693 C   0  0  0  0  0  0  0  0  0  0  0  0
  -28.3288   -4.9249  -30.6496 C   0  0  0  0  0  0  0  0  0  0  0  0
  -28.6041   -5.8580  -29.6557 C   0  0  0  0  0  0  0  0  0  0  0  0
  -28.3629   -7.1894  -29.9265 C   0  0  0  0  0  0  0  0  0  0  0  0
  -28.1245   -9.3941  -29.9460 C   0  0  0  0  0  0  0  0  0  0  0  0
  -28.5322   -8.3225  -29.1590 C   0  0  0  0  0  0  0  0  0  0  0  0
  -28.4694   -3.5583  -30.6566 N   0  0  0  0  0  0  0  0  0  0  0  0
    0.0000    0.0000    0.0000 C   0  0  0  0  0  0  0  0  0  0  0  0
  1  2  2  0
  1  3  1  0
  2  4  1  0
  4  5  2  0
  5  6  1  0
  6  7  2  0
  1  7  1  0
  3  8  1  0
  8  9  2  0
  7  9  1  0
  5 10  1  0
 10 11  1  0
M  END
>  <name>  (15) 
Car Nac Nd0 Car Car Car Car Car Car Nd0 C3r

>  <indices>  (15) 
[0, 1, 2]

>  <tasks>  (15) 
probe_placing close_aromatic_ring close_aromatic_ring close_aromatic_ring close_aromatic_ring ring_built build_to_Nd0 close_aromatic_ring no_task

>  <prot_clashes>  (15) 
0

>  <NBS phar>  (15) 
0.2

>  <NBS_non-phar>  (15) 
0.7226057052612305

>  <NBS>  (15) 
0.9226057052612304

>  <source_stage>  (15) 
scored

>  <source_iter>  (15) 
7

>  <source_parent_mol>  (15) 
0

>  <source_scenario>  (15) 
1 0 1 0 0 0 0

>  <source_rank_in_scored_call>  (15) 
0

>  <source_current_task>  (15) 
no_task

>  <scenario>  (15) 
1 0 1 0 0 0 0

>  <current_task>  (15) 
build_to_Nd0

>  <initiate_ring_bisect>  (15) 


>  <reason_to_skip>  (15) 
some_atom_counter_exceeded

$$$$

     RDKit          3D

 11 12  0  0  0  0  0  0  0  0999 V2000
  -27.8609   -7.5606  -31.1600 C   0  0  0  0  0  0  0  0  0  0  0  0
  -27.6012   -6.6215  -32.1138 N   0  0  0  0  0  0  0  0  0  0  0  0
  -27.7248   -8.9090  -31.1461 N   0  0  0  0  0  0  0  0  0  0  0  0
  -27.8300   -5.3151  -31.8693 C   0  0  0  0  0  0  0  0  0  0  0  0
  -28.3288   -4.9249  -30.6496 C   0  0  0  0  0  0  0  0  0  0  0  0
  -28.6041   -5.8580  -29.6557 C   0  0  0  0  0  0  0  0  0  0  0  0
  -28.3629   -7.1894  -29.9265 C   0  0  0  0  0  0  0  0  0  0  0  0
  -28.1245   -9.3941  -29.9460 C   0  0  0  0  0  0  0  0  0  0  0  0
  -28.5322   -8.3225  -29.1590 C   0  0  0  0  0  0  0  0  0  0  0  0
  -28.4694   -3.5583  -30.6566 N   0  0  0  0  0  0  0  0  0  0  0  0
    0.0000    0.0000    0.0000 C   0  0  0  0  0  0  0  0  0  0  0  0
  1  2  2  0
  1  3  1  0
  2  4  1  0
  4  5  2  0
  5  6  1  0
  6  7  2  0
  1  7  1  0
  3  8  1  0
  8  9  2  0
  7  9  1  0
  5 10  1  0
 10 11  1  0
M  END
>  <name>  (16) 
Car Nac Nd0 Car Car Car Car Car Car Nd0 C3r

>  <indices>  (16) 
[0, 1, 2]

>  <tasks>  (16) 
probe_placing close_aromatic_ring close_aromatic_ring close_aromatic_ring close_aromatic_ring ring_built build_to_Nd0 close_aromatic_ring no_task

>  <prot_clashes>  (16) 
0

>  <NBS phar>  (16) 
0.2

>  <NBS_non-phar>  (16) 
0.7226057052612305

>  <NBS>  (16) 
0.9226057052612304

>  <source_stage>  (16) 
scored

>  <source_iter>  (16) 
7

>  <source_parent_mol>  (16) 
0

>  <source_scenario>  (16) 
1 0 1 0 0 0 0

>  <source_rank_in_scored_call>  (16) 
0

>  <source_current_task>  (16) 
no_task

>  <scenario>  (16) 
1 0 1 0 0 0 0

>  <current_task>  (16) 
build_to_Nd0

>  <initiate_ring_bisect>  (16) 


>  <reason_to_skip>  (16) 
some_atom_counter_exceeded

$$$$

     RDKit          3D

 11 12  0  0  0  0  0  0  0  0999 V2000
  -27.8609   -7.5606  -31.1600 C   0  0  0  0  0  0  0  0  0  0  0  0
  -27.6012   -6.6215  -32.1138 N   0  0  0  0  0  0  0  0  0  0  0  0
  -27.7248   -8.9090  -31.1461 N   0  0  0  0  0  0  0  0  0  0  0  0
  -27.8300   -5.3151  -31.8693 C   0  0  0  0  0  0  0  0  0  0  0  0
  -28.3288   -4.9249  -30.6496 C   0  0  0  0  0  0  0  0  0  0  0  0
  -28.6041   -5.8580  -29.6557 C   0  0  0  0  0  0  0  0  0  0  0  0
  -28.3629   -7.1894  -29.9265 C   0  0  0  0  0  0  0  0  0  0  0  0
  -28.1245   -9.3941  -29.9460 C   0  0  0  0  0  0  0  0  0  0  0  0
  -28.5322   -8.3225  -29.1590 C   0  0  0  0  0  0  0  0  0  0  0  0
  -28.4694   -3.5583  -30.6566 N   0  0  0  0  0  0  0  0  0  0  0  0
  -28.9644   -3.4879  -29.3183 C   0  0  0  0  0  0  0  0  0  0  0  0
  1  2  2  0
  1  3  1  0
  2  4  1  0
  4  5  2  0
  5  6  1  0
  6  7  2  0
  1  7  1  0
  3  8  1  0
  8  9  2  0
  7  9  1  0
  5 10  1  0
 10 11  1  0
M  END
>  <name>  (17) 
Car Nac Nd0 Car Car Car Car Car Car Nd0 C2r

>  <indices>  (17) 
[0, 1, 2]

>  <tasks>  (17) 
probe_placing close_aromatic_ring close_aromatic_ring close_aromatic_ring close_aromatic_ring ring_built build_to_Nd0 close_aromatic_ring no_task

>  <prot_clashes>  (17) 
0

>  <NBS phar>  (17) 
0.2

>  <NBS_non-phar>  (17) 
0.7226057052612305

>  <NBS>  (17) 
0.9226057052612304

>  <source_stage>  (17) 
scored

>  <source_iter>  (17) 
7

>  <source_parent_mol>  (17) 
0

>  <source_scenario>  (17) 
1 0 1 0 0 0 0

>  <source_rank_in_scored_call>  (17) 
0

>  <source_current_task>  (17) 
no_task

>  <scenario>  (17) 
1 0 1 0 0 0 0

>  <current_task>  (17) 
build_to_Nd0

>  <initiate_ring_bisect>  (17) 


>  <reason_to_skip>  (17) 
bad angles

$$$$

     RDKit          3D

 11 12  0  0  0  0  0  0  0  0999 V2000
  -27.8609   -7.5606  -31.1600 C   0  0  0  0  0  0  0  0  0  0  0  0
  -27.6012   -6.6215  -32.1138 N   0  0  0  0  0  0  0  0  0  0  0  0
  -27.7248   -8.9090  -31.1461 N   0  0  0  0  0  0  0  0  0  0  0  0
  -27.8300   -5.3151  -31.8693 C   0  0  0  0  0  0  0  0  0  0  0  0
  -28.3288   -4.9249  -30.6496 C   0  0  0  0  0  0  0  0  0  0  0  0
  -28.6041   -5.8580  -29.6557 C   0  0  0  0  0  0  0  0  0  0  0  0
  -28.3629   -7.1894  -29.9265 C   0  0  0  0  0  0  0  0  0  0  0  0
  -28.1245   -9.3941  -29.9460 C   0  0  0  0  0  0  0  0  0  0  0  0
  -28.5322   -8.3225  -29.1590 C   0  0  0  0  0  0  0  0  0  0  0  0
  -28.4694   -3.5583  -30.6566 N   0  0  0  0  0  0  0  0  0  0  0  0
    0.0000    0.0000    0.0000 C   0  0  0  0  0  0  0  0  0  0  0  0
  1  2  2  0
  1  3  1  0
  2  4  1  0
  4  5  2  0
  5  6  1  0
  6  7  2  0
  1  7  1  0
  3  8  1  0
  8  9  2  0
  7  9  1  0
  5 10  1  0
 10 11  1  0
M  END
>  <name>  (18) 
Car Nac Nd0 Car Car Car Car Car Car Nd0 C3r

>  <indices>  (18) 
[0, 1, 2]

>  <tasks>  (18) 
probe_placing close_aromatic_ring close_aromatic_ring close_aromatic_ring close_aromatic_ring ring_built build_to_Nd0 close_aromatic_ring no_task

>  <prot_clashes>  (18) 
0

>  <NBS phar>  (18) 
0.2

>  <NBS_non-phar>  (18) 
0.7226057052612305

>  <NBS>  (18) 
0.9226057052612304

>  <source_stage>  (18) 
scored

>  <source_iter>  (18) 
7

>  <source_parent_mol>  (18) 
0

>  <source_scenario>  (18) 
1 0 1 0 0 0 0

>  <source_rank_in_scored_call>  (18) 
0

>  <source_current_task>  (18) 
no_task

>  <scenario>  (18) 
1 0 1 0 0 0 0

>  <current_task>  (18) 
build_to_Nd0

>  <initiate_ring_bisect>  (18) 


>  <reason_to_skip>  (18) 
some_atom_counter_exceeded

$$$$

     RDKit          3D

 11 12  0  0  0  0  0  0  0  0999 V2000
  -27.8609   -7.5606  -31.1600 C   0  0  0  0  0  0  0  0  0  0  0  0
  -27.6012   -6.6215  -32.1138 N   0  0  0  0  0  0  0  0  0  0  0  0
  -27.7248   -8.9090  -31.1461 N   0  0  0  0  0  0  0  0  0  0  0  0
  -27.8300   -5.3151  -31.8693 C   0  0  0  0  0  0  0  0  0  0  0  0
  -28.3288   -4.9249  -30.6496 C   0  0  0  0  0  0  0  0  0  0  0  0
  -28.6041   -5.8580  -29.6557 C   0  0  0  0  0  0  0  0  0  0  0  0
  -28.3629   -7.1894  -29.9265 C   0  0  0  0  0  0  0  0  0  0  0  0
  -28.1245   -9.3941  -29.9460 C   0  0  0  0  0  0  0  0  0  0  0  0
  -28.5322   -8.3225  -29.1590 C   0  0  0  0  0  0  0  0  0  0  0  0
  -28.4694   -3.5583  -30.6566 N   0  0  0  0  0  0  0  0  0  0  0  0
    0.0000    0.0000    0.0000 C   0  0  0  0  0  0  0  0  0  0  0  0
  1  2  2  0
  1  3  1  0
  2  4  1  0
  4  5  2  0
  5  6  1  0
  6  7  2  0
  1  7  1  0
  3  8  1  0
  8  9  2  0
  7  9  1  0
  5 10  1  0
 10 11  1  0
M  END
>  <name>  (19) 
Car Nac Nd0 Car Car Car Car Car Car Nd0 C3r

>  <indices>  (19) 
[0, 1, 2]

>  <tasks>  (19) 
probe_placing close_aromatic_ring close_aromatic_ring close_aromatic_ring close_aromatic_ring ring_built build_to_Nd0 close_aromatic_ring no_task

>  <prot_clashes>  (19) 
0

>  <NBS phar>  (19) 
0.2

>  <NBS_non-phar>  (19) 
0.7226057052612305

>  <NBS>  (19) 
0.9226057052612304

>  <source_stage>  (19) 
scored

>  <source_iter>  (19) 
7

>  <source_parent_mol>  (19) 
0

>  <source_scenario>  (19) 
1 0 1 0 0 0 0

>  <source_rank_in_scored_call>  (19) 
0

>  <source_current_task>  (19) 
no_task

>  <scenario>  (19) 
1 0 1 0 0 0 0

>  <current_task>  (19) 
build_to_Nd0

>  <initiate_ring_bisect>  (19) 


>  <reason_to_skip>  (19) 
some_atom_counter_exceeded

$$$$

     RDKit          3D

 11 12  0  0  0  0  0  0  0  0999 V2000
  -27.8609   -7.5606  -31.1600 C   0  0  0  0  0  0  0  0  0  0  0  0
  -27.6012   -6.6215  -32.1138 N   0  0  0  0  0  0  0  0  0  0  0  0
  -27.7248   -8.9090  -31.1461 N   0  0  0  0  0  0  0  0  0  0  0  0
  -27.8300   -5.3151  -31.8693 C   0  0  0  0  0  0  0  0  0  0  0  0
  -28.3288   -4.9249  -30.6496 C   0  0  0  0  0  0  0  0  0  0  0  0
  -28.6041   -5.8580  -29.6557 C   0  0  0  0  0  0  0  0  0  0  0  0
  -28.3629   -7.1894  -29.9265 C   0  0  0  0  0  0  0  0  0  0  0  0
  -28.1245   -9.3941  -29.9460 C   0  0  0  0  0  0  0  0  0  0  0  0
  -28.5322   -8.3225  -29.1590 C   0  0  0  0  0  0  0  0  0  0  0  0
  -28.4694   -3.5583  -30.6566 N   0  0  0  0  0  0  0  0  0  0  0  0
    0.0000    0.0000    0.0000 C   0  0  0  0  0  0  0  0  0  0  0  0
  1  2  2  0
  1  3  1  0
  2  4  1  0
  4  5  2  0
  5  6  1  0
  6  7  2  0
  1  7  1  0
  3  8  1  0
  8  9  2  0
  7  9  1  0
  5 10  1  0
 10 11  1  0
M  END
>  <name>  (20) 
Car Nac Nd0 Car Car Car Car Car Car Nd0 C3r

>  <indices>  (20) 
[0, 1, 2]

>  <tasks>  (20) 
probe_placing close_aromatic_ring close_aromatic_ring close_aromatic_ring close_aromatic_ring ring_built build_to_Nd0 close_aromatic_ring no_task

>  <prot_clashes>  (20) 
0

>  <NBS phar>  (20) 
0.2

>  <NBS_non-phar>  (20) 
0.7226057052612305

>  <NBS>  (20) 
0.9226057052612304

>  <source_stage>  (20) 
scored

>  <source_iter>  (20) 
7

>  <source_parent_mol>  (20) 
0

>  <source_scenario>  (20) 
1 0 1 0 0 0 0

>  <source_rank_in_scored_call>  (20) 
0

>  <source_current_task>  (20) 
no_task

>  <scenario>  (20) 
1 0 1 0 0 0 0

>  <current_task>  (20) 
build_to_Nd0

>  <initiate_ring_bisect>  (20) 


>  <reason_to_skip>  (20) 
some_atom_counter_exceeded

$$$$

     RDKit          3D

 11 12  0  0  0  0  0  0  0  0999 V2000
  -27.8609   -7.5606  -31.1600 C   0  0  0  0  0  0  0  0  0  0  0  0
  -27.6012   -6.6215  -32.1138 N   0  0  0  0  0  0  0  0  0  0  0  0
  -27.7248   -8.9090  -31.1461 N   0  0  0  0  0  0  0  0  0  0  0  0
  -27.8300   -5.3151  -31.8693 C   0  0  0  0  0  0  0  0  0  0  0  0
  -28.3288   -4.9249  -30.6496 C   0  0  0  0  0  0  0  0  0  0  0  0
  -28.6041   -5.8580  -29.6557 C   0  0  0  0  0  0  0  0  0  0  0  0
  -28.3629   -7.1894  -29.9265 C   0  0  0  0  0  0  0  0  0  0  0  0
  -28.1245   -9.3941  -29.9460 C   0  0  0  0  0  0  0  0  0  0  0  0
  -28.5322   -8.3225  -29.1590 C   0  0  0  0  0  0  0  0  0  0  0  0
  -28.4694   -3.5583  -30.6566 N   0  0  0  0  0  0  0  0  0  0  0  0
  -29.0015   -3.5211  -29.2600 C   0  0  0  0  0  0  0  0  0  0  0  0
  1  2  2  0
  1  3  1  0
  2  4  1  0
  4  5  2  0
  5  6  1  0
  6  7  2  0
  1  7  1  0
  3  8  1  0
  8  9  2  0
  7  9  1  0
  5 10  1  0
 10 11  1  0
M  END
>  <name>  (21) 
Car Nac Nd0 Car Car Car Car Car Car Nd0 Car

>  <indices>  (21) 
[0, 1, 2]

>  <tasks>  (21) 
probe_placing close_aromatic_ring close_aromatic_ring close_aromatic_ring close_aromatic_ring ring_built build_to_Nd0 close_aromatic_ring no_task

>  <prot_clashes>  (21) 
0

>  <NBS phar>  (21) 
0.2

>  <NBS_non-phar>  (21) 
0.7226057052612305

>  <NBS>  (21) 
0.9226057052612304

>  <source_stage>  (21) 
scored

>  <source_iter>  (21) 
7

>  <source_parent_mol>  (21) 
0

>  <source_scenario>  (21) 
1 0 1 0 0 0 0

>  <source_rank_in_scored_call>  (21) 
0

>  <source_current_task>  (21) 
no_task

>  <scenario>  (21) 
1 0 1 0 0 0 0

>  <current_task>  (21) 
build_to_Nd0

>  <initiate_ring_bisect>  (21) 


>  <reason_to_skip>  (21) 
bad angles

$$$$

     RDKit          3D

 11 12  0  0  0  0  0  0  0  0999 V2000
  -27.8609   -7.5606  -31.1600 C   0  0  0  0  0  0  0  0  0  0  0  0
  -27.6012   -6.6215  -32.1138 N   0  0  0  0  0  0  0  0  0  0  0  0
  -27.7248   -8.9090  -31.1461 N   0  0  0  0  0  0  0  0  0  0  0  0
  -27.8300   -5.3151  -31.8693 C   0  0  0  0  0  0  0  0  0  0  0  0
  -28.3288   -4.9249  -30.6496 C   0  0  0  0  0  0  0  0  0  0  0  0
  -28.6041   -5.8580  -29.6557 C   0  0  0  0  0  0  0  0  0  0  0  0
  -28.3629   -7.1894  -29.9265 C   0  0  0  0  0  0  0  0  0  0  0  0
  -28.1245   -9.3941  -29.9460 C   0  0  0  0  0  0  0  0  0  0  0  0
  -28.5322   -8.3225  -29.1590 C   0  0  0  0  0  0  0  0  0  0  0  0
  -28.4694   -3.5583  -30.6566 N   0  0  0  0  0  0  0  0  0  0  0  0
  -28.1928   -2.6694  -31.5982 C   0  0  0  0  0  0  0  0  0  0  0  0
  1  2  2  0
  1  3  1  0
  2  4  1  0
  4  5  2  0
  5  6  1  0
  6  7  2  0
  1  7  1  0
  3  8  1  0
  8  9  2  0
  7  9  1  0
  5 10  1  0
 10 11  1  0
M  END
>  <name>  (22) 
Car Nac Nd0 Car Car Car Car Car Car Nd0 Car

>  <indices>  (22) 
[0, 1, 2]

>  <tasks>  (22) 
probe_placing close_aromatic_ring close_aromatic_ring close_aromatic_ring close_aromatic_ring ring_built build_to_Nd0 close_aromatic_ring no_task

>  <prot_clashes>  (22) 
0

>  <NBS phar>  (22) 
0.2

>  <NBS_non-phar>  (22) 
0.7226057052612305

>  <NBS>  (22) 
0.9226057052612304

>  <source_stage>  (22) 
scored

>  <source_iter>  (22) 
7

>  <source_parent_mol>  (22) 
0

>  <source_scenario>  (22) 
1 0 1 0 0 0 0

>  <source_rank_in_scored_call>  (22) 
0

>  <source_current_task>  (22) 
no_task

>  <scenario>  (22) 
1 0 1 0 0 0 0

>  <current_task>  (22) 
close_aromatic_ring

>  <initiate_ring_bisect>  (22) 


>  <reason_to_skip>  (22) 
subgraph mismatch

$$$$

     RDKit          3D

 11 12  0  0  0  0  0  0  0  0999 V2000
  -27.8609   -7.5606  -31.1600 C   0  0  0  0  0  0  0  0  0  0  0  0
  -27.6012   -6.6215  -32.1138 N   0  0  0  0  0  0  0  0  0  0  0  0
  -27.7248   -8.9090  -31.1461 N   0  0  0  0  0  0  0  0  0  0  0  0
  -27.8300   -5.3151  -31.8693 C   0  0  0  0  0  0  0  0  0  0  0  0
  -28.3288   -4.9249  -30.6496 C   0  0  0  0  0  0  0  0  0  0  0  0
  -28.6041   -5.8580  -29.6557 C   0  0  0  0  0  0  0  0  0  0  0  0
  -28.3629   -7.1894  -29.9265 C   0  0  0  0  0  0  0  0  0  0  0  0
  -28.1245   -9.3941  -29.9460 C   0  0  0  0  0  0  0  0  0  0  0  0
  -28.5322   -8.3225  -29.1590 C   0  0  0  0  0  0  0  0  0  0  0  0
  -28.4694   -3.5583  -30.6566 N   0  0  0  0  0  0  0  0  0  0  0  0
  -28.9774   -3.0064  -29.4836 C   0  0  0  0  0  0  0  0  0  0  0  0
  1  2  2  0
  1  3  1  0
  2  4  1  0
  4  5  2  0
  5  6  1  0
  6  7  2  0
  1  7  1  0
  3  8  1  0
  8  9  2  0
  7  9  1  0
  5 10  1  0
 10 11  1  0
M  END
>  <name>  (23) 
Car Nac Nd0 Car Car Car Car Car Car Nd0 Car

>  <indices>  (23) 
[0, 1, 2]

>  <tasks>  (23) 
probe_placing close_aromatic_ring close_aromatic_ring close_aromatic_ring close_aromatic_ring ring_built build_to_Nd0 close_aromatic_ring no_task

>  <prot_clashes>  (23) 
0

>  <NBS phar>  (23) 
0.2

>  <NBS_non-phar>  (23) 
0.7226057052612305

>  <NBS>  (23) 
0.9226057052612304

>  <source_stage>  (23) 
scored

>  <source_iter>  (23) 
7

>  <source_parent_mol>  (23) 
0

>  <source_scenario>  (23) 
1 0 1 0 0 0 0

>  <source_rank_in_scored_call>  (23) 
0

>  <source_current_task>  (23) 
no_task

>  <scenario>  (23) 
1 0 1 0 0 0 0

>  <current_task>  (23) 
close_aromatic_ring

>  <initiate_ring_bisect>  (23) 


>  <reason_to_skip>  (23) 
subgraph mismatch

$$$$

     RDKit          3D

 11 12  0  0  0  0  0  0  0  0999 V2000
  -27.8609   -7.5606  -31.1600 C   0  0  0  0  0  0  0  0  0  0  0  0
  -27.6012   -6.6215  -32.1138 N   0  0  0  0  0  0  0  0  0  0  0  0
  -27.7248   -8.9090  -31.1461 N   0  0  0  0  0  0  0  0  0  0  0  0
  -27.8300   -5.3151  -31.8693 C   0  0  0  0  0  0  0  0  0  0  0  0
  -28.3288   -4.9249  -30.6496 C   0  0  0  0  0  0  0  0  0  0  0  0
  -28.6041   -5.8580  -29.6557 C   0  0  0  0  0  0  0  0  0  0  0  0
  -28.3629   -7.1894  -29.9265 C   0  0  0  0  0  0  0  0  0  0  0  0
  -28.1245   -9.3941  -29.9460 C   0  0  0  0  0  0  0  0  0  0  0  0
  -28.5322   -8.3225  -29.1590 C   0  0  0  0  0  0  0  0  0  0  0  0
  -28.4694   -3.5583  -30.6566 N   0  0  0  0  0  0  0  0  0  0  0  0
  -29.3193   -2.8454  -29.7505 C   0  0  0  0  0  0  0  0  0  0  0  0
  1  2  2  0
  1  3  1  0
  2  4  1  0
  4  5  2  0
  5  6  1  0
  6  7  2  0
  1  7  1  0
  3  8  1  0
  8  9  2  0
  7  9  1  0
  5 10  1  0
 10 11  1  0
M  END
>  <name>  (24) 
Car Nac Nd0 Car Car Car Car Car Car Nd0 Car

>  <indices>  (24) 
[0, 1, 2]

>  <tasks>  (24) 
probe_placing close_aromatic_ring close_aromatic_ring close_aromatic_ring close_aromatic_ring ring_built build_to_Nd0 close_aromatic_ring no_task

>  <prot_clashes>  (24) 
0

>  <NBS phar>  (24) 
0.2

>  <NBS_non-phar>  (24) 
0.7226057052612305

>  <NBS>  (24) 
0.9226057052612304

>  <source_stage>  (24) 
scored

>  <source_iter>  (24) 
7

>  <source_parent_mol>  (24) 
0

>  <source_scenario>  (24) 
1 0 1 0 0 0 0

>  <source_rank_in_scored_call>  (24) 
0

>  <source_current_task>  (24) 
no_task

>  <scenario>  (24) 
1 0 1 0 0 0 0

>  <current_task>  (24) 
close_aromatic_ring

>  <initiate_ring_bisect>  (24) 


>  <reason_to_skip>  (24) 
subgraph mismatch

$$$$

     RDKit          3D

 11 12  0  0  0  0  0  0  0  0999 V2000
  -27.8609   -7.5606  -31.1600 C   0  0  0  0  0  0  0  0  0  0  0  0
  -27.6012   -6.6215  -32.1138 N   0  0  0  0  0  0  0  0  0  0  0  0
  -27.7248   -8.9090  -31.1461 N   0  0  0  0  0  0  0  0  0  0  0  0
  -27.8300   -5.3151  -31.8693 C   0  0  0  0  0  0  0  0  0  0  0  0
  -28.3288   -4.9249  -30.6496 C   0  0  0  0  0  0  0  0  0  0  0  0
  -28.6041   -5.8580  -29.6557 C   0  0  0  0  0  0  0  0  0  0  0  0
  -28.3629   -7.1894  -29.9265 C   0  0  0  0  0  0  0  0  0  0  0  0
  -28.1245   -9.3941  -29.9460 C   0  0  0  0  0  0  0  0  0  0  0  0
  -28.5322   -8.3225  -29.1590 C   0  0  0  0  0  0  0  0  0  0  0  0
  -28.4694   -3.5583  -30.6566 N   0  0  0  0  0  0  0  0  0  0  0  0
  -27.7535   -2.8000  -29.7722 C   0  0  0  0  0  0  0  0  0  0  0  0
  1  2  2  0
  1  3  1  0
  2  4  1  0
  4  5  2  0
  5  6  1  0
  6  7  2  0
  1  7  1  0
  3  8  1  0
  8  9  2  0
  7  9  1  0
  5 10  1  0
 10 11  1  0
M  END
>  <name>  (25) 
Car Nac Nd0 Car Car Car Car Car Car Nd0 Car

>  <indices>  (25) 
[0, 1, 2]

>  <tasks>  (25) 
probe_placing close_aromatic_ring close_aromatic_ring close_aromatic_ring close_aromatic_ring ring_built build_to_Nd0 close_aromatic_ring no_task

>  <prot_clashes>  (25) 
0

>  <NBS phar>  (25) 
0.2

>  <NBS_non-phar>  (25) 
0.7226057052612305

>  <NBS>  (25) 
0.9226057052612304

>  <source_stage>  (25) 
scored

>  <source_iter>  (25) 
7

>  <source_parent_mol>  (25) 
0

>  <source_scenario>  (25) 
1 0 1 0 0 0 0

>  <source_rank_in_scored_call>  (25) 
0

>  <source_current_task>  (25) 
no_task

>  <scenario>  (25) 
1 0 1 0 0 0 0

>  <current_task>  (25) 
close_aromatic_ring

>  <initiate_ring_bisect>  (25) 


>  <reason_to_skip>  (25) 
subgraph mismatch

$$$$

     RDKit          3D

 11 12  0  0  0  0  0  0  0  0999 V2000
  -27.8609   -7.5606  -31.1600 C   0  0  0  0  0  0  0  0  0  0  0  0
  -27.6012   -6.6215  -32.1138 N   0  0  0  0  0  0  0  0  0  0  0  0
  -27.7248   -8.9090  -31.1461 N   0  0  0  0  0  0  0  0  0  0  0  0
  -27.8300   -5.3151  -31.8693 C   0  0  0  0  0  0  0  0  0  0  0  0
  -28.3288   -4.9249  -30.6496 C   0  0  0  0  0  0  0  0  0  0  0  0
  -28.6041   -5.8580  -29.6557 C   0  0  0  0  0  0  0  0  0  0  0  0
  -28.3629   -7.1894  -29.9265 C   0  0  0  0  0  0  0  0  0  0  0  0
  -28.1245   -9.3941  -29.9460 C   0  0  0  0  0  0  0  0  0  0  0  0
  -28.5322   -8.3225  -29.1590 C   0  0  0  0  0  0  0  0  0  0  0  0
  -28.4694   -3.5583  -30.6566 N   0  0  0  0  0  0  0  0  0  0  0  0
  -29.8221   -2.9370  -30.5080 C   0  0  0  0  0  0  0  0  0  0  0  0
  1  2  2  0
  1  3  1  0
  2  4  1  0
  4  5  2  0
  5  6  1  0
  6  7  2  0
  1  7  1  0
  3  8  1  0
  8  9  2  0
  7  9  1  0
  5 10  1  0
 10 11  1  0
M  END
>  <name>  (26) 
Car Nac Nd0 Car Car Car Car Car Car Nd0 Car

>  <indices>  (26) 
[0, 1, 2]

>  <tasks>  (26) 
probe_placing close_aromatic_ring close_aromatic_ring close_aromatic_ring close_aromatic_ring ring_built build_to_Nd0 close_aromatic_ring no_task

>  <prot_clashes>  (26) 
0

>  <NBS phar>  (26) 
0.2

>  <NBS_non-phar>  (26) 
0.7226057052612305

>  <NBS>  (26) 
0.9226057052612304

>  <source_stage>  (26) 
scored

>  <source_iter>  (26) 
7

>  <source_parent_mol>  (26) 
0

>  <source_scenario>  (26) 
1 0 1 0 0 0 0

>  <source_rank_in_scored_call>  (26) 
0

>  <source_current_task>  (26) 
no_task

>  <scenario>  (26) 
1 0 1 0 0 0 0

>  <current_task>  (26) 
close_aromatic_ring

>  <initiate_ring_bisect>  (26) 


>  <reason_to_skip>  (26) 
subgraph mismatch

$$$$

     RDKit          3D

 11 12  0  0  0  0  0  0  0  0999 V2000
  -27.8609   -7.5606  -31.1600 C   0  0  0  0  0  0  0  0  0  0  0  0
  -27.6012   -6.6215  -32.1138 N   0  0  0  0  0  0  0  0  0  0  0  0
  -27.7248   -8.9090  -31.1461 N   0  0  0  0  0  0  0  0  0  0  0  0
  -27.8300   -5.3151  -31.8693 C   0  0  0  0  0  0  0  0  0  0  0  0
  -28.3288   -4.9249  -30.6496 C   0  0  0  0  0  0  0  0  0  0  0  0
  -28.6041   -5.8580  -29.6557 C   0  0  0  0  0  0  0  0  0  0  0  0
  -28.3629   -7.1894  -29.9265 C   0  0  0  0  0  0  0  0  0  0  0  0
  -28.1245   -9.3941  -29.9460 C   0  0  0  0  0  0  0  0  0  0  0  0
  -28.5322   -8.3225  -29.1590 C   0  0  0  0  0  0  0  0  0  0  0  0
  -28.4694   -3.5583  -30.6566 N   0  0  0  0  0  0  0  0  0  0  0  0
  -28.0572   -3.0820  -31.8772 C   0  0  0  0  0  0  0  0  0  0  0  0
  1  2  2  0
  1  3  1  0
  2  4  1  0
  4  5  2  0
  5  6  1  0
  6  7  2  0
  1  7  1  0
  3  8  1  0
  8  9  2  0
  7  9  1  0
  5 10  1  0
 10 11  1  0
M  END
>  <name>  (27) 
Car Nac Nd0 Car Car Car Car Car Car Nd0 Car

>  <indices>  (27) 
[0, 1, 2]

>  <tasks>  (27) 
probe_placing close_aromatic_ring close_aromatic_ring close_aromatic_ring close_aromatic_ring ring_built build_to_Nd0 close_aromatic_ring no_task

>  <prot_clashes>  (27) 
0

>  <NBS phar>  (27) 
0.2

>  <NBS_non-phar>  (27) 
0.7226057052612305

>  <NBS>  (27) 
0.9226057052612304

>  <source_stage>  (27) 
scored

>  <source_iter>  (27) 
7

>  <source_parent_mol>  (27) 
0

>  <source_scenario>  (27) 
1 0 1 0 0 0 0

>  <source_rank_in_scored_call>  (27) 
0

>  <source_current_task>  (27) 
no_task

>  <scenario>  (27) 
1 0 1 0 0 0 0

>  <current_task>  (27) 
close_aromatic_ring

>  <initiate_ring_bisect>  (27) 


>  <initiate_ring_110>  (27) 


>  <reason_to_skip>  (27) 
subgraph mismatch

$$$$

     RDKit          3D

 11 12  0  0  0  0  0  0  0  0999 V2000
  -27.8609   -7.5606  -31.1600 C   0  0  0  0  0  0  0  0  0  0  0  0
  -27.6012   -6.6215  -32.1138 N   0  0  0  0  0  0  0  0  0  0  0  0
  -27.7248   -8.9090  -31.1461 N   0  0  0  0  0  0  0  0  0  0  0  0
  -27.8300   -5.3151  -31.8693 C   0  0  0  0  0  0  0  0  0  0  0  0
  -28.3288   -4.9249  -30.6496 C   0  0  0  0  0  0  0  0  0  0  0  0
  -28.6041   -5.8580  -29.6557 C   0  0  0  0  0  0  0  0  0  0  0  0
  -28.3629   -7.1894  -29.9265 C   0  0  0  0  0  0  0  0  0  0  0  0
  -28.1245   -9.3941  -29.9460 C   0  0  0  0  0  0  0  0  0  0  0  0
  -28.5322   -8.3225  -29.1590 C   0  0  0  0  0  0  0  0  0  0  0  0
  -28.4694   -3.5583  -30.6566 N   0  0  0  0  0  0  0  0  0  0  0  0
  -27.8984   -2.5983  -31.2870 C   0  0  0  0  0  0  0  0  0  0  0  0
  1  2  2  0
  1  3  1  0
  2  4  1  0
  4  5  2  0
  5  6  1  0
  6  7  2  0
  1  7  1  0
  3  8  1  0
  8  9  2  0
  7  9  1  0
  5 10  1  0
 10 11  1  0
M  END
>  <name>  (28) 
Car Nac Nd0 Car Car Car Car Car Car Nd0 Car

>  <indices>  (28) 
[0, 1, 2]

>  <tasks>  (28) 
probe_placing close_aromatic_ring close_aromatic_ring close_aromatic_ring close_aromatic_ring ring_built build_to_Nd0 close_aromatic_ring no_task

>  <prot_clashes>  (28) 
0

>  <NBS phar>  (28) 
0.2

>  <NBS_non-phar>  (28) 
0.7226057052612305

>  <NBS>  (28) 
0.9226057052612304

>  <source_stage>  (28) 
scored

>  <source_iter>  (28) 
7

>  <source_parent_mol>  (28) 
0

>  <source_scenario>  (28) 
1 0 1 0 0 0 0

>  <source_rank_in_scored_call>  (28) 
0

>  <source_current_task>  (28) 
no_task

>  <scenario>  (28) 
1 0 1 0 0 0 0

>  <current_task>  (28) 
close_aromatic_ring

>  <initiate_ring_bisect>  (28) 


>  <reason_to_skip>  (28) 
subgraph mismatch

$$$$

     RDKit          3D

 11 12  0  0  0  0  0  0  0  0999 V2000
  -27.8609   -7.5606  -31.1600 C   0  0  0  0  0  0  0  0  0  0  0  0
  -27.6012   -6.6215  -32.1138 N   0  0  0  0  0  0  0  0  0  0  0  0
  -27.7248   -8.9090  -31.1461 N   0  0  0  0  0  0  0  0  0  0  0  0
  -27.8300   -5.3151  -31.8693 C   0  0  0  0  0  0  0  0  0  0  0  0
  -28.3288   -4.9249  -30.6496 C   0  0  0  0  0  0  0  0  0  0  0  0
  -28.6041   -5.8580  -29.6557 C   0  0  0  0  0  0  0  0  0  0  0  0
  -28.3629   -7.1894  -29.9265 C   0  0  0  0  0  0  0  0  0  0  0  0
  -28.1245   -9.3941  -29.9460 C   0  0  0  0  0  0  0  0  0  0  0  0
  -28.5322   -8.3225  -29.1590 C   0  0  0  0  0  0  0  0  0  0  0  0
  -28.4694   -3.5583  -30.6566 N   0  0  0  0  0  0  0  0  0  0  0  0
  -29.4143   -2.8407  -31.4127 C   0  0  0  0  0  0  0  0  0  0  0  0
  1  2  2  0
  1  3  1  0
  2  4  1  0
  4  5  2  0
  5  6  1  0
  6  7  2  0
  1  7  1  0
  3  8  1  0
  8  9  2  0
  7  9  1  0
  5 10  1  0
 10 11  1  0
M  END
>  <name>  (29) 
Car Nac Nd0 Car Car Car Car Car Car Nd0 Car

>  <indices>  (29) 
[0, 1, 2]

>  <tasks>  (29) 
probe_placing close_aromatic_ring close_aromatic_ring close_aromatic_ring close_aromatic_ring ring_built build_to_Nd0 close_aromatic_ring no_task

>  <prot_clashes>  (29) 
0

>  <NBS phar>  (29) 
0.2

>  <NBS_non-phar>  (29) 
0.7226057052612305

>  <NBS>  (29) 
0.9226057052612304

>  <source_stage>  (29) 
scored

>  <source_iter>  (29) 
7

>  <source_parent_mol>  (29) 
0

>  <source_scenario>  (29) 
1 0 1 0 0 0 0

>  <source_rank_in_scored_call>  (29) 
0

>  <source_current_task>  (29) 
no_task

>  <scenario>  (29) 
1 0 1 0 0 0 0

>  <current_task>  (29) 
close_aromatic_ring

>  <initiate_ring_bisect>  (29) 


>  <reason_to_skip>  (29) 
subgraph mismatch

$$$$

     RDKit          3D

 11 12  0  0  0  0  0  0  0  0999 V2000
  -27.8609   -7.5606  -31.1600 C   0  0  0  0  0  0  0  0  0  0  0  0
  -27.6012   -6.6215  -32.1138 N   0  0  0  0  0  0  0  0  0  0  0  0
  -27.7248   -8.9090  -31.1461 N   0  0  0  0  0  0  0  0  0  0  0  0
  -27.8300   -5.3151  -31.8693 C   0  0  0  0  0  0  0  0  0  0  0  0
  -28.3288   -4.9249  -30.6496 C   0  0  0  0  0  0  0  0  0  0  0  0
  -28.6041   -5.8580  -29.6557 C   0  0  0  0  0  0  0  0  0  0  0  0
  -28.3629   -7.1894  -29.9265 C   0  0  0  0  0  0  0  0  0  0  0  0
  -28.1245   -9.3941  -29.9460 C   0  0  0  0  0  0  0  0  0  0  0  0
  -28.5322   -8.3225  -29.1590 C   0  0  0  0  0  0  0  0  0  0  0  0
  -28.4694   -3.5583  -30.6566 N   0  0  0  0  0  0  0  0  0  0  0  0
  -27.3700   -2.6801  -30.5491 C   0  0  0  0  0  0  0  0  0  0  0  0
  1  2  2  0
  1  3  1  0
  2  4  1  0
  4  5  2  0
  5  6  1  0
  6  7  2  0
  1  7  1  0
  3  8  1  0
  8  9  2  0
  7  9  1  0
  5 10  1  0
 10 11  1  0
M  END
>  <name>  (30) 
Car Nac Nd0 Car Car Car Car Car Car Nd0 Car

>  <indices>  (30) 
[0, 1, 2]

>  <tasks>  (30) 
probe_placing close_aromatic_ring close_aromatic_ring close_aromatic_ring close_aromatic_ring ring_built build_to_Nd0 close_aromatic_ring no_task

>  <prot_clashes>  (30) 
0

>  <NBS phar>  (30) 
0.2

>  <NBS_non-phar>  (30) 
0.7226057052612305

>  <NBS>  (30) 
0.9226057052612304

>  <source_stage>  (30) 
scored

>  <source_iter>  (30) 
7

>  <source_parent_mol>  (30) 
0

>  <source_scenario>  (30) 
1 0 1 0 0 0 0

>  <source_rank_in_scored_call>  (30) 
0

>  <source_current_task>  (30) 
no_task

>  <scenario>  (30) 
1 0 1 0 0 0 0

>  <current_task>  (30) 
close_aromatic_ring

>  <initiate_ring_bisect>  (30) 


>  <reason_to_skip>  (30) 
subgraph mismatch

$$$$

     RDKit          3D

 11 12  0  0  0  0  0  0  0  0999 V2000
  -27.8609   -7.5606  -31.1600 C   0  0  0  0  0  0  0  0  0  0  0  0
  -27.6012   -6.6215  -32.1138 N   0  0  0  0  0  0  0  0  0  0  0  0
  -27.7248   -8.9090  -31.1461 N   0  0  0  0  0  0  0  0  0  0  0  0
  -27.8300   -5.3151  -31.8693 C   0  0  0  0  0  0  0  0  0  0  0  0
  -28.3288   -4.9249  -30.6496 C   0  0  0  0  0  0  0  0  0  0  0  0
  -28.6041   -5.8580  -29.6557 C   0  0  0  0  0  0  0  0  0  0  0  0
  -28.3629   -7.1894  -29.9265 C   0  0  0  0  0  0  0  0  0  0  0  0
  -28.1245   -9.3941  -29.9460 C   0  0  0  0  0  0  0  0  0  0  0  0
  -28.5322   -8.3225  -29.1590 C   0  0  0  0  0  0  0  0  0  0  0  0
  -28.4694   -3.5583  -30.6566 N   0  0  0  0  0  0  0  0  0  0  0  0
  -29.4440   -2.7652  -29.9465 C   0  0  0  0  0  0  0  0  0  0  0  0
  1  2  2  0
  1  3  1  0
  2  4  1  0
  4  5  2  0
  5  6  1  0
  6  7  2  0
  1  7  1  0
  3  8  1  0
  8  9  2  0
  7  9  1  0
  5 10  1  0
 10 11  1  0
M  END
>  <name>  (31) 
Car Nac Nd0 Car Car Car Car Car Car Nd0 C2r

>  <indices>  (31) 
[0, 1, 2]

>  <tasks>  (31) 
probe_placing close_aromatic_ring close_aromatic_ring close_aromatic_ring close_aromatic_ring ring_built build_to_Nd0 close_aromatic_ring no_task

>  <prot_clashes>  (31) 
0

>  <NBS phar>  (31) 
0.2

>  <NBS_non-phar>  (31) 
0.7226057052612305

>  <NBS>  (31) 
0.9226057052612304

>  <source_stage>  (31) 
scored

>  <source_iter>  (31) 
7

>  <source_parent_mol>  (31) 
0

>  <source_scenario>  (31) 
1 0 1 0 0 0 0

>  <source_rank_in_scored_call>  (31) 
0

>  <source_current_task>  (31) 
no_task

>  <scenario>  (31) 
1 0 1 0 0 0 0

>  <current_task>  (31) 
close_aliphatic_ring

>  <initiate_ring_bisect>  (31) 


>  <reason_to_skip>  (31) 
subgraph mismatch

$$$$

     RDKit          3D

 11 12  0  0  0  0  0  0  0  0999 V2000
  -27.8609   -7.5606  -31.1600 C   0  0  0  0  0  0  0  0  0  0  0  0
  -27.6012   -6.6215  -32.1138 N   0  0  0  0  0  0  0  0  0  0  0  0
  -27.7248   -8.9090  -31.1461 N   0  0  0  0  0  0  0  0  0  0  0  0
  -27.8300   -5.3151  -31.8693 C   0  0  0  0  0  0  0  0  0  0  0  0
  -28.3288   -4.9249  -30.6496 C   0  0  0  0  0  0  0  0  0  0  0  0
  -28.6041   -5.8580  -29.6557 C   0  0  0  0  0  0  0  0  0  0  0  0
  -28.3629   -7.1894  -29.9265 C   0  0  0  0  0  0  0  0  0  0  0  0
  -28.1245   -9.3941  -29.9460 C   0  0  0  0  0  0  0  0  0  0  0  0
  -28.5322   -8.3225  -29.1590 C   0  0  0  0  0  0  0  0  0  0  0  0
  -28.4694   -3.5583  -30.6566 N   0  0  0  0  0  0  0  0  0  0  0  0
  -27.9373   -2.5241  -31.5160 C   0  0  0  0  0  0  0  0  0  0  0  0
  1  2  2  0
  1  3  1  0
  2  4  1  0
  4  5  2  0
  5  6  1  0
  6  7  2  0
  1  7  1  0
  3  8  1  0
  8  9  2  0
  7  9  1  0
  5 10  1  0
 10 11  1  0
M  END
>  <name>  (32) 
Car Nac Nd0 Car Car Car Car Car Car Nd0 C2r

>  <indices>  (32) 
[0, 1, 2]

>  <tasks>  (32) 
probe_placing close_aromatic_ring close_aromatic_ring close_aromatic_ring close_aromatic_ring ring_built build_to_Nd0 close_aromatic_ring no_task

>  <prot_clashes>  (32) 
0

>  <NBS phar>  (32) 
0.2

>  <NBS_non-phar>  (32) 
0.7226057052612305

>  <NBS>  (32) 
0.9226057052612304

>  <source_stage>  (32) 
scored

>  <source_iter>  (32) 
7

>  <source_parent_mol>  (32) 
0

>  <source_scenario>  (32) 
1 0 1 0 0 0 0

>  <source_rank_in_scored_call>  (32) 
0

>  <source_current_task>  (32) 
no_task

>  <scenario>  (32) 
1 0 1 0 0 0 0

>  <current_task>  (32) 
close_aliphatic_ring

>  <initiate_ring_bisect>  (32) 


>  <reason_to_skip>  (32) 
subgraph mismatch

$$$$

     RDKit          3D

 11 12  0  0  0  0  0  0  0  0999 V2000
  -27.8609   -7.5606  -31.1600 C   0  0  0  0  0  0  0  0  0  0  0  0
  -27.6012   -6.6215  -32.1138 N   0  0  0  0  0  0  0  0  0  0  0  0
  -27.7248   -8.9090  -31.1461 N   0  0  0  0  0  0  0  0  0  0  0  0
  -27.8300   -5.3151  -31.8693 C   0  0  0  0  0  0  0  0  0  0  0  0
  -28.3288   -4.9249  -30.6496 C   0  0  0  0  0  0  0  0  0  0  0  0
  -28.6041   -5.8580  -29.6557 C   0  0  0  0  0  0  0  0  0  0  0  0
  -28.3629   -7.1894  -29.9265 C   0  0  0  0  0  0  0  0  0  0  0  0
  -28.1245   -9.3941  -29.9460 C   0  0  0  0  0  0  0  0  0  0  0  0
  -28.5322   -8.3225  -29.1590 C   0  0  0  0  0  0  0  0  0  0  0  0
  -28.4694   -3.5583  -30.6566 N   0  0  0  0  0  0  0  0  0  0  0  0
  -29.3147   -2.9218  -29.4679 C   0  0  0  0  0  0  0  0  0  0  0  0
  1  2  2  0
  1  3  1  0
  2  4  1  0
  4  5  2  0
  5  6  1  0
  6  7  2  0
  1  7  1  0
  3  8  1  0
  8  9  2  0
  7  9  1  0
  5 10  1  0
 10 11  1  0
M  END
>  <name>  (33) 
Car Nac Nd0 Car Car Car Car Car Car Nd0 C2r

>  <indices>  (33) 
[0, 1, 2]

>  <tasks>  (33) 
probe_placing close_aromatic_ring close_aromatic_ring close_aromatic_ring close_aromatic_ring ring_built build_to_Nd0 close_aromatic_ring no_task

>  <prot_clashes>  (33) 
0

>  <NBS phar>  (33) 
0.2

>  <NBS_non-phar>  (33) 
0.7226057052612305

>  <NBS>  (33) 
0.9226057052612304

>  <source_stage>  (33) 
scored

>  <source_iter>  (33) 
7

>  <source_parent_mol>  (33) 
0

>  <source_scenario>  (33) 
1 0 1 0 0 0 0

>  <source_rank_in_scored_call>  (33) 
0

>  <source_current_task>  (33) 
no_task

>  <scenario>  (33) 
1 0 1 0 0 0 0

>  <current_task>  (33) 
close_aliphatic_ring

>  <initiate_ring_bisect>  (33) 


>  <reason_to_skip>  (33) 
subgraph mismatch

$$$$

     RDKit          3D

 11 12  0  0  0  0  0  0  0  0999 V2000
  -27.8609   -7.5606  -31.1600 C   0  0  0  0  0  0  0  0  0  0  0  0
  -27.6012   -6.6215  -32.1138 N   0  0  0  0  0  0  0  0  0  0  0  0
  -27.7248   -8.9090  -31.1461 N   0  0  0  0  0  0  0  0  0  0  0  0
  -27.8300   -5.3151  -31.8693 C   0  0  0  0  0  0  0  0  0  0  0  0
  -28.3288   -4.9249  -30.6496 C   0  0  0  0  0  0  0  0  0  0  0  0
  -28.6041   -5.8580  -29.6557 C   0  0  0  0  0  0  0  0  0  0  0  0
  -28.3629   -7.1894  -29.9265 C   0  0  0  0  0  0  0  0  0  0  0  0
  -28.1245   -9.3941  -29.9460 C   0  0  0  0  0  0  0  0  0  0  0  0
  -28.5322   -8.3225  -29.1590 C   0  0  0  0  0  0  0  0  0  0  0  0
  -28.4694   -3.5583  -30.6566 N   0  0  0  0  0  0  0  0  0  0  0  0
  -28.1020   -3.0684  -31.8113 C   0  0  0  0  0  0  0  0  0  0  0  0
  1  2  2  0
  1  3  1  0
  2  4  1  0
  4  5  2  0
  5  6  1  0
  6  7  2  0
  1  7  1  0
  3  8  1  0
  8  9  2  0
  7  9  1  0
  5 10  1  0
 10 11  1  0
M  END
>  <name>  (34) 
Car Nac Nd0 Car Car Car Car Car Car Nd0 C2r

>  <indices>  (34) 
[0, 1, 2]

>  <tasks>  (34) 
probe_placing close_aromatic_ring close_aromatic_ring close_aromatic_ring close_aromatic_ring ring_built build_to_Nd0 close_aromatic_ring no_task

>  <prot_clashes>  (34) 
0

>  <NBS phar>  (34) 
0.2

>  <NBS_non-phar>  (34) 
0.7226057052612305

>  <NBS>  (34) 
0.9226057052612304

>  <source_stage>  (34) 
scored

>  <source_iter>  (34) 
7

>  <source_parent_mol>  (34) 
0

>  <source_scenario>  (34) 
1 0 1 0 0 0 0

>  <source_rank_in_scored_call>  (34) 
0

>  <source_current_task>  (34) 
no_task

>  <scenario>  (34) 
1 0 1 0 0 0 0

>  <current_task>  (34) 
close_aliphatic_ring

>  <initiate_ring_bisect>  (34) 


>  <reason_to_skip>  (34) 
subgraph mismatch

$$$$

     RDKit          3D

 11 12  0  0  0  0  0  0  0  0999 V2000
  -27.8609   -7.5606  -31.1600 C   0  0  0  0  0  0  0  0  0  0  0  0
  -27.6012   -6.6215  -32.1138 N   0  0  0  0  0  0  0  0  0  0  0  0
  -27.7248   -8.9090  -31.1461 N   0  0  0  0  0  0  0  0  0  0  0  0
  -27.8300   -5.3151  -31.8693 C   0  0  0  0  0  0  0  0  0  0  0  0
  -28.3288   -4.9249  -30.6496 C   0  0  0  0  0  0  0  0  0  0  0  0
  -28.6041   -5.8580  -29.6557 C   0  0  0  0  0  0  0  0  0  0  0  0
  -28.3629   -7.1894  -29.9265 C   0  0  0  0  0  0  0  0  0  0  0  0
  -28.1245   -9.3941  -29.9460 C   0  0  0  0  0  0  0  0  0  0  0  0
  -28.5322   -8.3225  -29.1590 C   0  0  0  0  0  0  0  0  0  0  0  0
  -28.4694   -3.5583  -30.6566 N   0  0  0  0  0  0  0  0  0  0  0  0
  -28.2122   -2.6964  -29.5469 C   0  0  0  0  0  0  0  0  0  0  0  0
  1  2  2  0
  1  3  1  0
  2  4  1  0
  4  5  2  0
  5  6  1  0
  6  7  2  0
  1  7  1  0
  3  8  1  0
  8  9  2  0
  7  9  1  0
  5 10  1  0
 10 11  1  0
M  END
>  <name>  (35) 
Car Nac Nd0 Car Car Car Car Car Car Nd0 C2r

>  <indices>  (35) 
[0, 1, 2]

>  <tasks>  (35) 
probe_placing close_aromatic_ring close_aromatic_ring close_aromatic_ring close_aromatic_ring ring_built build_to_Nd0 close_aromatic_ring no_task

>  <prot_clashes>  (35) 
0

>  <NBS phar>  (35) 
0.2

>  <NBS_non-phar>  (35) 
0.7226057052612305

>  <NBS>  (35) 
0.9226057052612304

>  <source_stage>  (35) 
scored

>  <source_iter>  (35) 
7

>  <source_parent_mol>  (35) 
0

>  <source_scenario>  (35) 
1 0 1 0 0 0 0

>  <source_rank_in_scored_call>  (35) 
0

>  <source_current_task>  (35) 
no_task

>  <scenario>  (35) 
1 0 1 0 0 0 0

>  <current_task>  (35) 
close_aliphatic_ring

>  <initiate_ring_bisect>  (35) 


>  <reason_to_skip>  (35) 
subgraph mismatch

$$$$

     RDKit          3D

 11 12  0  0  0  0  0  0  0  0999 V2000
  -27.8609   -7.5606  -31.1600 C   0  0  0  0  0  0  0  0  0  0  0  0
  -27.6012   -6.6215  -32.1138 N   0  0  0  0  0  0  0  0  0  0  0  0
  -27.7248   -8.9090  -31.1461 N   0  0  0  0  0  0  0  0  0  0  0  0
  -27.8300   -5.3151  -31.8693 C   0  0  0  0  0  0  0  0  0  0  0  0
  -28.3288   -4.9249  -30.6496 C   0  0  0  0  0  0  0  0  0  0  0  0
  -28.6041   -5.8580  -29.6557 C   0  0  0  0  0  0  0  0  0  0  0  0
  -28.3629   -7.1894  -29.9265 C   0  0  0  0  0  0  0  0  0  0  0  0
  -28.1245   -9.3941  -29.9460 C   0  0  0  0  0  0  0  0  0  0  0  0
  -28.5322   -8.3225  -29.1590 C   0  0  0  0  0  0  0  0  0  0  0  0
  -28.4694   -3.5583  -30.6566 N   0  0  0  0  0  0  0  0  0  0  0  0
  -28.4930   -2.6757  -29.3776 C   0  0  0  0  0  0  0  0  0  0  0  0
  1  2  2  0
  1  3  1  0
  2  4  1  0
  4  5  2  0
  5  6  1  0
  6  7  2  0
  1  7  1  0
  3  8  1  0
  8  9  2  0
  7  9  1  0
  5 10  1  0
 10 11  1  0
M  END
>  <name>  (36) 
Car Nac Nd0 Car Car Car Car Car Car Nd0 C2r

>  <indices>  (36) 
[0, 1, 2]

>  <tasks>  (36) 
probe_placing close_aromatic_ring close_aromatic_ring close_aromatic_ring close_aromatic_ring ring_built build_to_Nd0 close_aromatic_ring no_task

>  <prot_clashes>  (36) 
0

>  <NBS phar>  (36) 
0.2

>  <NBS_non-phar>  (36) 
0.7226057052612305

>  <NBS>  (36) 
0.9226057052612304

>  <source_stage>  (36) 
scored

>  <source_iter>  (36) 
7

>  <source_parent_mol>  (36) 
0

>  <source_scenario>  (36) 
1 0 1 0 0 0 0

>  <source_rank_in_scored_call>  (36) 
0

>  <source_current_task>  (36) 
no_task

>  <scenario>  (36) 
1 0 1 0 0 0 0

>  <current_task>  (36) 
close_aliphatic_ring

>  <initiate_ring_bisect>  (36) 


>  <reason_to_skip>  (36) 
subgraph mismatch

$$$$

     RDKit          3D

 11 12  0  0  0  0  0  0  0  0999 V2000
  -27.8609   -7.5606  -31.1600 C   0  0  0  0  0  0  0  0  0  0  0  0
  -27.6012   -6.6215  -32.1138 N   0  0  0  0  0  0  0  0  0  0  0  0
  -27.7248   -8.9090  -31.1461 N   0  0  0  0  0  0  0  0  0  0  0  0
  -27.8300   -5.3151  -31.8693 C   0  0  0  0  0  0  0  0  0  0  0  0
  -28.3288   -4.9249  -30.6496 C   0  0  0  0  0  0  0  0  0  0  0  0
  -28.6041   -5.8580  -29.6557 C   0  0  0  0  0  0  0  0  0  0  0  0
  -28.3629   -7.1894  -29.9265 C   0  0  0  0  0  0  0  0  0  0  0  0
  -28.1245   -9.3941  -29.9460 C   0  0  0  0  0  0  0  0  0  0  0  0
  -28.5322   -8.3225  -29.1590 C   0  0  0  0  0  0  0  0  0  0  0  0
  -28.4694   -3.5583  -30.6566 N   0  0  0  0  0  0  0  0  0  0  0  0
  -29.0076   -2.7208  -31.4923 C   0  0  0  0  0  0  0  0  0  0  0  0
  1  2  2  0
  1  3  1  0
  2  4  1  0
  4  5  2  0
  5  6  1  0
  6  7  2  0
  1  7  1  0
  3  8  1  0
  8  9  2  0
  7  9  1  0
  5 10  1  0
 10 11  1  0
M  END
>  <name>  (37) 
Car Nac Nd0 Car Car Car Car Car Car Nd0 C2r

>  <indices>  (37) 
[0, 1, 2]

>  <tasks>  (37) 
probe_placing close_aromatic_ring close_aromatic_ring close_aromatic_ring close_aromatic_ring ring_built build_to_Nd0 close_aromatic_ring no_task

>  <prot_clashes>  (37) 
0

>  <NBS phar>  (37) 
0.2

>  <NBS_non-phar>  (37) 
0.7226057052612305

>  <NBS>  (37) 
0.9226057052612304

>  <source_stage>  (37) 
scored

>  <source_iter>  (37) 
7

>  <source_parent_mol>  (37) 
0

>  <source_scenario>  (37) 
1 0 1 0 0 0 0

>  <source_rank_in_scored_call>  (37) 
0

>  <source_current_task>  (37) 
no_task

>  <scenario>  (37) 
1 0 1 0 0 0 0

>  <current_task>  (37) 
close_aliphatic_ring

>  <initiate_ring_bisect>  (37) 


>  <reason_to_skip>  (37) 
subgraph mismatch

$$$$

     RDKit          3D

 11 12  0  0  0  0  0  0  0  0999 V2000
  -27.8609   -7.5606  -31.1600 C   0  0  0  0  0  0  0  0  0  0  0  0
  -27.6012   -6.6215  -32.1138 N   0  0  0  0  0  0  0  0  0  0  0  0
  -27.7248   -8.9090  -31.1461 N   0  0  0  0  0  0  0  0  0  0  0  0
  -27.8300   -5.3151  -31.8693 C   0  0  0  0  0  0  0  0  0  0  0  0
  -28.3288   -4.9249  -30.6496 C   0  0  0  0  0  0  0  0  0  0  0  0
  -28.6041   -5.8580  -29.6557 C   0  0  0  0  0  0  0  0  0  0  0  0
  -28.3629   -7.1894  -29.9265 C   0  0  0  0  0  0  0  0  0  0  0  0
  -28.1245   -9.3941  -29.9460 C   0  0  0  0  0  0  0  0  0  0  0  0
  -28.5322   -8.3225  -29.1590 C   0  0  0  0  0  0  0  0  0  0  0  0
  -28.4694   -3.5583  -30.6566 N   0  0  0  0  0  0  0  0  0  0  0  0
  -28.7447   -2.6002  -31.6535 C   0  0  0  0  0  0  0  0  0  0  0  0
  1  2  2  0
  1  3  1  0
  2  4  1  0
  4  5  2  0
  5  6  1  0
  6  7  2  0
  1  7  1  0
  3  8  1  0
  8  9  2  0
  7  9  1  0
  5 10  1  0
 10 11  1  0
M  END
>  <name>  (38) 
Car Nac Nd0 Car Car Car Car Car Car Nd0 C2r

>  <indices>  (38) 
[0, 1, 2]

>  <tasks>  (38) 
probe_placing close_aromatic_ring close_aromatic_ring close_aromatic_ring close_aromatic_ring ring_built build_to_Nd0 close_aromatic_ring no_task

>  <prot_clashes>  (38) 
0

>  <NBS phar>  (38) 
0.2

>  <NBS_non-phar>  (38) 
0.7226057052612305

>  <NBS>  (38) 
0.9226057052612304

>  <source_stage>  (38) 
scored

>  <source_iter>  (38) 
7

>  <source_parent_mol>  (38) 
0

>  <source_scenario>  (38) 
1 0 1 0 0 0 0

>  <source_rank_in_scored_call>  (38) 
0

>  <source_current_task>  (38) 
no_task

>  <scenario>  (38) 
1 0 1 0 0 0 0

>  <current_task>  (38) 
close_aliphatic_ring

>  <initiate_ring_bisect>  (38) 


>  <reason_to_skip>  (38) 
subgraph mismatch

$$$$

     RDKit          3D

 11 12  0  0  0  0  0  0  0  0999 V2000
  -27.8609   -7.5606  -31.1600 C   0  0  0  0  0  0  0  0  0  0  0  0
  -27.6012   -6.6215  -32.1138 N   0  0  0  0  0  0  0  0  0  0  0  0
  -27.7248   -8.9090  -31.1461 N   0  0  0  0  0  0  0  0  0  0  0  0
  -27.8300   -5.3151  -31.8693 C   0  0  0  0  0  0  0  0  0  0  0  0
  -28.3288   -4.9249  -30.6496 C   0  0  0  0  0  0  0  0  0  0  0  0
  -28.6041   -5.8580  -29.6557 C   0  0  0  0  0  0  0  0  0  0  0  0
  -28.3629   -7.1894  -29.9265 C   0  0  0  0  0  0  0  0  0  0  0  0
  -28.1245   -9.3941  -29.9460 C   0  0  0  0  0  0  0  0  0  0  0  0
  -28.5322   -8.3225  -29.1590 C   0  0  0  0  0  0  0  0  0  0  0  0
  -28.4694   -3.5583  -30.6566 N   0  0  0  0  0  0  0  0  0  0  0  0
  -27.6705   -2.6706  -29.9479 C   0  0  0  0  0  0  0  0  0  0  0  0
  1  2  2  0
  1  3  1  0
  2  4  1  0
  4  5  2  0
  5  6  1  0
  6  7  2  0
  1  7  1  0
  3  8  1  0
  8  9  2  0
  7  9  1  0
  5 10  1  0
 10 11  1  0
M  END
>  <name>  (39) 
Car Nac Nd0 Car Car Car Car Car Car Nd0 C2r

>  <indices>  (39) 
[0, 1, 2]

>  <tasks>  (39) 
probe_placing close_aromatic_ring close_aromatic_ring close_aromatic_ring close_aromatic_ring ring_built build_to_Nd0 close_aromatic_ring no_task

>  <prot_clashes>  (39) 
0

>  <NBS phar>  (39) 
0.2

>  <NBS_non-phar>  (39) 
0.7226057052612305

>  <NBS>  (39) 
0.9226057052612304

>  <source_stage>  (39) 
scored

>  <source_iter>  (39) 
7

>  <source_parent_mol>  (39) 
0

>  <source_scenario>  (39) 
1 0 1 0 0 0 0

>  <source_rank_in_scored_call>  (39) 
0

>  <source_current_task>  (39) 
no_task

>  <scenario>  (39) 
1 0 1 0 0 0 0

>  <current_task>  (39) 
close_aliphatic_ring

>  <initiate_ring_bisect>  (39) 


>  <reason_to_skip>  (39) 
subgraph mismatch

$$$$

     RDKit          3D

  9  9  0  0  0  0  0  0  0  0999 V2000
  -27.9544   -7.5786  -31.0885 C   0  0  0  0  0  0  0  0  0  0  0  0
  -27.6252   -6.6792  -32.0546 N   0  0  0  0  0  0  0  0  0  0  0  0
  -27.6840   -8.8650  -31.2620 N   0  0  0  0  0  0  0  0  0  0  0  0
  -27.7723   -5.3521  -31.8910 C   0  0  0  0  0  0  0  0  0  0  0  0
  -28.2774   -4.8775  -30.6967 C   0  0  0  0  0  0  0  0  0  0  0  0
  -28.6304   -5.7525  -29.6749 C   0  0  0  0  0  0  0  0  0  0  0  0
  -28.4669   -7.1072  -29.8753 C   0  0  0  0  0  0  0  0  0  0  0  0
  -28.8046   -9.6905  -31.3453 C   0  0  0  0  0  0  0  0  0  0  0  0
    0.0000    0.0000    0.0000 S   0  0  0  0  0  0  0  0  0  0  0  0
  1  2  2  0
  1  3  1  0
  2  4  1  0
  4  5  2  0
  5  6  1  0
  6  7  2  0
  1  7  1  0
  3  8  1  0
  8  9  1  0
M  END
>  <name>  (1) 
Car Nac Nd0 Car Car Car Car Car Sul

>  <indices>  (1) 
[0, 1, 2]

>  <tasks>  (1) 
probe_placing close_aromatic_ring close_aromatic_ring close_aromatic_ring close_aromatic_ring ring_built build_to_Nd0

>  <prot_clashes>  (1) 
2

>  <NBS phar>  (1) 
0.2

>  <NBS_non-phar>  (1) 
0.7958453297615051

>  <NBS>  (1) 
0.9958453297615051

>  <source_stage>  (1) 
scored

>  <source_iter>  (1) 
5

>  <source_parent_mol>  (1) 
0

>  <source_scenario>  (1) 
1 0 1 0 0

>  <source_rank_in_scored_call>  (1) 
1

>  <source_current_task>  (1) 
build_to_Nd0

>  <scenario>  (1) 
1 0 1 0 0

>  <current_task>  (1) 
close_aromatic_ring

>  <rotatable_bond_torsions>  (1) 
1,0,2,7

>  <reason_to_skip>  (1) 
some_atom_counter_exceeded

$$$$

     RDKit          3D

  9  9  0  0  0  0  0  0  0  0999 V2000
  -27.9544   -7.5786  -31.0885 C   0  0  0  0  0  0  0  0  0  0  0  0
  -27.6252   -6.6792  -32.0546 N   0  0  0  0  0  0  0  0  0  0  0  0
  -27.6840   -8.8650  -31.2620 N   0  0  0  0  0  0  0  0  0  0  0  0
  -27.7723   -5.3521  -31.8910 C   0  0  0  0  0  0  0  0  0  0  0  0
  -28.2774   -4.8775  -30.6967 C   0  0  0  0  0  0  0  0  0  0  0  0
  -28.6304   -5.7525  -29.6749 C   0  0  0  0  0  0  0  0  0  0  0  0
  -28.4669   -7.1072  -29.8753 C   0  0  0  0  0  0  0  0  0  0  0  0
  -28.8046   -9.6905  -31.3453 C   0  0  0  0  0  0  0  0  0  0  0  0
    0.0000    0.0000    0.0000 S   0  0  0  0  0  0  0  0  0  0  0  0
  1  2  2  0
  1  3  1  0
  2  4  1  0
  4  5  2  0
  5  6  1  0
  6  7  2  0
  1  7  1  0
  3  8  1  0
  8  9  1  0
M  END
>  <name>  (2) 
Car Nac Nd0 Car Car Car Car Car Sul

>  <indices>  (2) 
[0, 1, 2]

>  <tasks>  (2) 
probe_placing close_aromatic_ring close_aromatic_ring close_aromatic_ring close_aromatic_ring ring_built build_to_Nd0

>  <prot_clashes>  (2) 
2

>  <NBS phar>  (2) 
0.2

>  <NBS_non-phar>  (2) 
0.7958453297615051

>  <NBS>  (2) 
0.9958453297615051

>  <source_stage>  (2) 
scored

>  <source_iter>  (2) 
5

>  <source_parent_mol>  (2) 
0

>  <source_scenario>  (2) 
1 0 1 0 0

>  <source_rank_in_scored_call>  (2) 
1

>  <source_current_task>  (2) 
build_to_Nd0

>  <scenario>  (2) 
1 0 1 0 0

>  <current_task>  (2) 
close_aromatic_ring

>  <rotatable_bond_torsions>  (2) 
1,0,2,7

>  <reason_to_skip>  (2) 
some_atom_counter_exceeded

$$$$

     RDKit          3D

  9  9  0  0  0  0  0  0  0  0999 V2000
  -27.9544   -7.5786  -31.0885 C   0  0  0  0  0  0  0  0  0  0  0  0
  -27.6252   -6.6792  -32.0546 N   0  0  0  0  0  0  0  0  0  0  0  0
  -27.6840   -8.8650  -31.2620 N   0  0  0  0  0  0  0  0  0  0  0  0
  -27.7723   -5.3521  -31.8910 C   0  0  0  0  0  0  0  0  0  0  0  0
  -28.2774   -4.8775  -30.6967 C   0  0  0  0  0  0  0  0  0  0  0  0
  -28.6304   -5.7525  -29.6749 C   0  0  0  0  0  0  0  0  0  0  0  0
  -28.4669   -7.1072  -29.8753 C   0  0  0  0  0  0  0  0  0  0  0  0
  -28.8046   -9.6905  -31.3453 C   0  0  0  0  0  0  0  0  0  0  0  0
    0.0000    0.0000    0.0000 O   0  0  0  0  0  0  0  0  0  0  0  0
  1  2  2  0
  1  3  1  0
  2  4  1  0
  4  5  2  0
  5  6  1  0
  6  7  2  0
  1  7  1  0
  3  8  1  0
  8  9  1  0
M  END
>  <name>  (3) 
Car Nac Nd0 Car Car Car Car Car O_a

>  <indices>  (3) 
[0, 1, 2]

>  <tasks>  (3) 
probe_placing close_aromatic_ring close_aromatic_ring close_aromatic_ring close_aromatic_ring ring_built build_to_Nd0

>  <prot_clashes>  (3) 
2

>  <NBS phar>  (3) 
0.2

>  <NBS_non-phar>  (3) 
0.7958453297615051

>  <NBS>  (3) 
0.9958453297615051

>  <source_stage>  (3) 
scored

>  <source_iter>  (3) 
5

>  <source_parent_mol>  (3) 
0

>  <source_scenario>  (3) 
1 0 1 0 0

>  <source_rank_in_scored_call>  (3) 
1

>  <source_current_task>  (3) 
build_to_Nd0

>  <scenario>  (3) 
1 0 1 0 0

>  <current_task>  (3) 
close_aromatic_ring

>  <rotatable_bond_torsions>  (3) 
1,0,2,7

>  <reason_to_skip>  (3) 
some_atom_counter_exceeded

$$$$

     RDKit          3D

  9  9  0  0  0  0  0  0  0  0999 V2000
  -27.9544   -7.5786  -31.0885 C   0  0  0  0  0  0  0  0  0  0  0  0
  -27.6252   -6.6792  -32.0546 N   0  0  0  0  0  0  0  0  0  0  0  0
  -27.6840   -8.8650  -31.2620 N   0  0  0  0  0  0  0  0  0  0  0  0
  -27.7723   -5.3521  -31.8910 C   0  0  0  0  0  0  0  0  0  0  0  0
  -28.2774   -4.8775  -30.6967 C   0  0  0  0  0  0  0  0  0  0  0  0
  -28.6304   -5.7525  -29.6749 C   0  0  0  0  0  0  0  0  0  0  0  0
  -28.4669   -7.1072  -29.8753 C   0  0  0  0  0  0  0  0  0  0  0  0
  -28.8046   -9.6905  -31.3453 C   0  0  0  0  0  0  0  0  0  0  0  0
    0.0000    0.0000    0.0000 S   0  0  0  0  0  0  0  0  0  0  0  0
  1  2  2  0
  1  3  1  0
  2  4  1  0
  4  5  2  0
  5  6  1  0
  6  7  2  0
  1  7  1  0
  3  8  1  0
  8  9  1  0
M  END
>  <name>  (4) 
Car Nac Nd0 Car Car Car Car Car Sul

>  <indices>  (4) 
[0, 1, 2]

>  <tasks>  (4) 
probe_placing close_aromatic_ring close_aromatic_ring close_aromatic_ring close_aromatic_ring ring_built build_to_Nd0

>  <prot_clashes>  (4) 
2

>  <NBS phar>  (4) 
0.2

>  <NBS_non-phar>  (4) 
0.7958453297615051

>  <NBS>  (4) 
0.9958453297615051

>  <source_stage>  (4) 
scored

>  <source_iter>  (4) 
5

>  <source_parent_mol>  (4) 
0

>  <source_scenario>  (4) 
1 0 1 0 0

>  <source_rank_in_scored_call>  (4) 
1

>  <source_current_task>  (4) 
build_to_Nd0

>  <scenario>  (4) 
1 0 1 0 0

>  <current_task>  (4) 
close_aromatic_ring

>  <rotatable_bond_torsions>  (4) 
1,0,2,7

>  <reason_to_skip>  (4) 
some_atom_counter_exceeded

$$$$

     RDKit          3D

  9  9  0  0  0  0  0  0  0  0999 V2000
  -27.9544   -7.5786  -31.0885 C   0  0  0  0  0  0  0  0  0  0  0  0
  -27.6252   -6.6792  -32.0546 N   0  0  0  0  0  0  0  0  0  0  0  0
  -27.6840   -8.8650  -31.2620 N   0  0  0  0  0  0  0  0  0  0  0  0
  -27.7723   -5.3521  -31.8910 C   0  0  0  0  0  0  0  0  0  0  0  0
  -28.2774   -4.8775  -30.6967 C   0  0  0  0  0  0  0  0  0  0  0  0
  -28.6304   -5.7525  -29.6749 C   0  0  0  0  0  0  0  0  0  0  0  0
  -28.4669   -7.1072  -29.8753 C   0  0  0  0  0  0  0  0  0  0  0  0
  -28.8046   -9.6905  -31.3453 C   0  0  0  0  0  0  0  0  0  0  0  0
  -30.1081   -9.2895  -31.2552 C   0  0  0  0  0  0  0  0  0  0  0  0
  1  2  2  0
  1  3  1  0
  2  4  1  0
  4  5  2  0
  5  6  1  0
  6  7  2  0
  1  7  1  0
  3  8  1  0
  8  9  2  0
M  END
>  <name>  (5) 
Car Nac Nd0 Car Car Car Car Car Car

>  <indices>  (5) 
[0, 1, 2]

>  <tasks>  (5) 
probe_placing close_aromatic_ring close_aromatic_ring close_aromatic_ring close_aromatic_ring ring_built build_to_Nd0

>  <prot_clashes>  (5) 
2

>  <NBS phar>  (5) 
0.2

>  <NBS_non-phar>  (5) 
0.7958453297615051

>  <NBS>  (5) 
0.9958453297615051

>  <source_stage>  (5) 
scored

>  <source_iter>  (5) 
5

>  <source_parent_mol>  (5) 
0

>  <source_scenario>  (5) 
1 0 1 0 0

>  <source_rank_in_scored_call>  (5) 
1

>  <source_current_task>  (5) 
build_to_Nd0

>  <scenario>  (5) 
1 0 1 0 0

>  <current_task>  (5) 
close_aromatic_ring

>  <rotatable_bond_torsions>  (5) 
1,0,2,7

>  <reason_to_skip>  (5) 
subgraph mismatch

$$$$

     RDKit          3D

  9  9  0  0  0  0  0  0  0  0999 V2000
  -27.9544   -7.5786  -31.0885 C   0  0  0  0  0  0  0  0  0  0  0  0
  -27.6252   -6.6792  -32.0546 N   0  0  0  0  0  0  0  0  0  0  0  0
  -27.6840   -8.8650  -31.2620 N   0  0  0  0  0  0  0  0  0  0  0  0
  -27.7723   -5.3521  -31.8910 C   0  0  0  0  0  0  0  0  0  0  0  0
  -28.2774   -4.8775  -30.6967 C   0  0  0  0  0  0  0  0  0  0  0  0
  -28.6304   -5.7525  -29.6749 C   0  0  0  0  0  0  0  0  0  0  0  0
  -28.4669   -7.1072  -29.8753 C   0  0  0  0  0  0  0  0  0  0  0  0
  -28.8046   -9.6905  -31.3453 C   0  0  0  0  0  0  0  0  0  0  0  0
  -28.5487  -11.0782  -31.6842 C   0  0  0  0  0  0  0  0  0  0  0  0
  1  2  2  0
  1  3  1  0
  2  4  1  0
  4  5  2  0
  5  6  1  0
  6  7  2  0
  1  7  1  0
  3  8  1  0
  8  9  2  0
M  END
>  <name>  (6) 
Car Nac Nd0 Car Car Car Car Car Car

>  <indices>  (6) 
[0, 1, 2]

>  <tasks>  (6) 
probe_placing close_aromatic_ring close_aromatic_ring close_aromatic_ring close_aromatic_ring ring_built build_to_Nd0

>  <prot_clashes>  (6) 
2

>  <NBS phar>  (6) 
0.2

>  <NBS_non-phar>  (6) 
0.7958453297615051

>  <NBS>  (6) 
0.9958453297615051

>  <source_stage>  (6) 
scored

>  <source_iter>  (6) 
5

>  <source_parent_mol>  (6) 
0

>  <source_scenario>  (6) 
1 0 1 0 0

>  <source_rank_in_scored_call>  (6) 
1

>  <source_current_task>  (6) 
build_to_Nd0

>  <scenario>  (6) 
1 0 1 0 0

>  <current_task>  (6) 
close_aromatic_ring

>  <rotatable_bond_torsions>  (6) 
1,0,2,7

>  <reason_to_skip>  (6) 
subgraph mismatch

$$$$

     RDKit          3D

  9  9  0  0  0  0  0  0  0  0999 V2000
  -27.9544   -7.5786  -31.0885 C   0  0  0  0  0  0  0  0  0  0  0  0
  -27.6252   -6.6792  -32.0546 N   0  0  0  0  0  0  0  0  0  0  0  0
  -27.6840   -8.8650  -31.2620 N   0  0  0  0  0  0  0  0  0  0  0  0
  -27.7723   -5.3521  -31.8910 C   0  0  0  0  0  0  0  0  0  0  0  0
  -28.2774   -4.8775  -30.6967 C   0  0  0  0  0  0  0  0  0  0  0  0
  -28.6304   -5.7525  -29.6749 C   0  0  0  0  0  0  0  0  0  0  0  0
  -28.4669   -7.1072  -29.8753 C   0  0  0  0  0  0  0  0  0  0  0  0
  -28.8046   -9.6905  -31.3453 C   0  0  0  0  0  0  0  0  0  0  0  0
  -28.9454  -10.7693  -30.3832 C   0  0  0  0  0  0  0  0  0  0  0  0
  1  2  2  0
  1  3  1  0
  2  4  1  0
  4  5  2  0
  5  6  1  0
  6  7  2  0
  1  7  1  0
  3  8  1  0
  8  9  2  0
M  END
>  <name>  (7) 
Car Nac Nd0 Car Car Car Car Car Car

>  <indices>  (7) 
[0, 1, 2]

>  <tasks>  (7) 
probe_placing close_aromatic_ring close_aromatic_ring close_aromatic_ring close_aromatic_ring ring_built build_to_Nd0

>  <prot_clashes>  (7) 
2

>  <NBS phar>  (7) 
0.2

>  <NBS_non-phar>  (7) 
0.7958453297615051

>  <NBS>  (7) 
0.9958453297615051

>  <source_stage>  (7) 
scored

>  <source_iter>  (7) 
5

>  <source_parent_mol>  (7) 
0

>  <source_scenario>  (7) 
1 0 1 0 0

>  <source_rank_in_scored_call>  (7) 
1

>  <source_current_task>  (7) 
build_to_Nd0

>  <scenario>  (7) 
1 0 1 0 0

>  <current_task>  (7) 
close_aromatic_ring

>  <rotatable_bond_torsions>  (7) 
1,0,2,7

>  <reason_to_skip>  (7) 
subgraph mismatch

$$$$

     RDKit          3D

  9  9  0  0  0  0  0  0  0  0999 V2000
  -27.9544   -7.5786  -31.0885 C   0  0  0  0  0  0  0  0  0  0  0  0
  -27.6252   -6.6792  -32.0546 N   0  0  0  0  0  0  0  0  0  0  0  0
  -27.6840   -8.8650  -31.2620 N   0  0  0  0  0  0  0  0  0  0  0  0
  -27.7723   -5.3521  -31.8910 C   0  0  0  0  0  0  0  0  0  0  0  0
  -28.2774   -4.8775  -30.6967 C   0  0  0  0  0  0  0  0  0  0  0  0
  -28.6304   -5.7525  -29.6749 C   0  0  0  0  0  0  0  0  0  0  0  0
  -28.4669   -7.1072  -29.8753 C   0  0  0  0  0  0  0  0  0  0  0  0
  -28.8046   -9.6905  -31.3453 C   0  0  0  0  0  0  0  0  0  0  0  0
  -29.1298  -10.3868  -32.5633 C   0  0  0  0  0  0  0  0  0  0  0  0
  1  2  2  0
  1  3  1  0
  2  4  1  0
  4  5  2  0
  5  6  1  0
  6  7  2  0
  1  7  1  0
  3  8  1  0
  8  9  2  0
M  END
>  <name>  (8) 
Car Nac Nd0 Car Car Car Car Car Car

>  <indices>  (8) 
[0, 1, 2]

>  <tasks>  (8) 
probe_placing close_aromatic_ring close_aromatic_ring close_aromatic_ring close_aromatic_ring ring_built build_to_Nd0

>  <prot_clashes>  (8) 
2

>  <NBS phar>  (8) 
0.2

>  <NBS_non-phar>  (8) 
0.7958453297615051

>  <NBS>  (8) 
0.9958453297615051

>  <source_stage>  (8) 
scored

>  <source_iter>  (8) 
5

>  <source_parent_mol>  (8) 
0

>  <source_scenario>  (8) 
1 0 1 0 0

>  <source_rank_in_scored_call>  (8) 
1

>  <source_current_task>  (8) 
build_to_Nd0

>  <scenario>  (8) 
1 0 1 0 0

>  <current_task>  (8) 
close_aromatic_ring

>  <rotatable_bond_torsions>  (8) 
1,0,2,7

>  <reason_to_skip>  (8) 
subgraph mismatch

$$$$

     RDKit          3D

  9  9  0  0  0  0  0  0  0  0999 V2000
  -27.9544   -7.5786  -31.0885 C   0  0  0  0  0  0  0  0  0  0  0  0
  -27.6252   -6.6792  -32.0546 N   0  0  0  0  0  0  0  0  0  0  0  0
  -27.6840   -8.8650  -31.2620 N   0  0  0  0  0  0  0  0  0  0  0  0
  -27.7723   -5.3521  -31.8910 C   0  0  0  0  0  0  0  0  0  0  0  0
  -28.2774   -4.8775  -30.6967 C   0  0  0  0  0  0  0  0  0  0  0  0
  -28.6304   -5.7525  -29.6749 C   0  0  0  0  0  0  0  0  0  0  0  0
  -28.4669   -7.1072  -29.8753 C   0  0  0  0  0  0  0  0  0  0  0  0
  -28.8046   -9.6905  -31.3453 C   0  0  0  0  0  0  0  0  0  0  0  0
  -29.9196   -8.8397  -31.1991 C   0  0  0  0  0  0  0  0  0  0  0  0
  1  2  2  0
  1  3  1  0
  2  4  1  0
  4  5  2  0
  5  6  1  0
  6  7  2  0
  1  7  1  0
  3  8  1  0
  8  9  2  0
M  END
>  <name>  (9) 
Car Nac Nd0 Car Car Car Car Car Car

>  <indices>  (9) 
[0, 1, 2]

>  <tasks>  (9) 
probe_placing close_aromatic_ring close_aromatic_ring close_aromatic_ring close_aromatic_ring ring_built build_to_Nd0

>  <prot_clashes>  (9) 
2

>  <NBS phar>  (9) 
0.2

>  <NBS_non-phar>  (9) 
0.7958453297615051

>  <NBS>  (9) 
0.9958453297615051

>  <source_stage>  (9) 
scored

>  <source_iter>  (9) 
5

>  <source_parent_mol>  (9) 
0

>  <source_scenario>  (9) 
1 0 1 0 0

>  <source_rank_in_scored_call>  (9) 
1

>  <source_current_task>  (9) 
build_to_Nd0

>  <scenario>  (9) 
1 0 1 0 0

>  <current_task>  (9) 
close_aromatic_ring

>  <rotatable_bond_torsions>  (9) 
1,0,2,7

>  <reason_to_skip>  (9) 
subgraph mismatch

$$$$

     RDKit          3D

  9  9  0  0  0  0  0  0  0  0999 V2000
  -27.9544   -7.5786  -31.0885 C   0  0  0  0  0  0  0  0  0  0  0  0
  -27.6252   -6.6792  -32.0546 N   0  0  0  0  0  0  0  0  0  0  0  0
  -27.6840   -8.8650  -31.2620 N   0  0  0  0  0  0  0  0  0  0  0  0
  -27.7723   -5.3521  -31.8910 C   0  0  0  0  0  0  0  0  0  0  0  0
  -28.2774   -4.8775  -30.6967 C   0  0  0  0  0  0  0  0  0  0  0  0
  -28.6304   -5.7525  -29.6749 C   0  0  0  0  0  0  0  0  0  0  0  0
  -28.4669   -7.1072  -29.8753 C   0  0  0  0  0  0  0  0  0  0  0  0
  -28.8046   -9.6905  -31.3453 C   0  0  0  0  0  0  0  0  0  0  0  0
  -30.1626   -9.1893  -31.2328 C   0  0  0  0  0  0  0  0  0  0  0  0
  1  2  2  0
  1  3  1  0
  2  4  1  0
  4  5  2  0
  5  6  1  0
  6  7  2  0
  1  7  1  0
  3  8  1  0
  8  9  1  0
M  END
>  <name>  (10) 
Car Nac Nd0 Car Car Car Car Car Car

>  <indices>  (10) 
[0, 1, 2]

>  <tasks>  (10) 
probe_placing close_aromatic_ring close_aromatic_ring close_aromatic_ring close_aromatic_ring ring_built build_to_Nd0

>  <prot_clashes>  (10) 
2

>  <NBS phar>  (10) 
0.2

>  <NBS_non-phar>  (10) 
0.7958453297615051

>  <NBS>  (10) 
0.9958453297615051

>  <source_stage>  (10) 
scored

>  <source_iter>  (10) 
5

>  <source_parent_mol>  (10) 
0

>  <source_scenario>  (10) 
1 0 1 0 0

>  <source_rank_in_scored_call>  (10) 
1

>  <source_current_task>  (10) 
build_to_Nd0

>  <scenario>  (10) 
1 0 1 0 0

>  <current_task>  (10) 
close_aromatic_ring

>  <rotatable_bond_torsions>  (10) 
1,0,2,7

>  <reason_to_skip>  (10) 
subgraph mismatch

$$$$

     RDKit          3D

  9  9  0  0  0  0  0  0  0  0999 V2000
  -27.9544   -7.5786  -31.0885 C   0  0  0  0  0  0  0  0  0  0  0  0
  -27.6252   -6.6792  -32.0546 N   0  0  0  0  0  0  0  0  0  0  0  0
  -27.6840   -8.8650  -31.2620 N   0  0  0  0  0  0  0  0  0  0  0  0
  -27.7723   -5.3521  -31.8910 C   0  0  0  0  0  0  0  0  0  0  0  0
  -28.2774   -4.8775  -30.6967 C   0  0  0  0  0  0  0  0  0  0  0  0
  -28.6304   -5.7525  -29.6749 C   0  0  0  0  0  0  0  0  0  0  0  0
  -28.4669   -7.1072  -29.8753 C   0  0  0  0  0  0  0  0  0  0  0  0
  -28.8046   -9.6905  -31.3453 C   0  0  0  0  0  0  0  0  0  0  0  0
  -28.4924  -10.9945  -31.9969 C   0  0  0  0  0  0  0  0  0  0  0  0
  1  2  2  0
  1  3  1  0
  2  4  1  0
  4  5  2  0
  5  6  1  0
  6  7  2  0
  1  7  1  0
  3  8  1  0
  8  9  1  0
M  END
>  <name>  (11) 
Car Nac Nd0 Car Car Car Car Car Car

>  <indices>  (11) 
[0, 1, 2]

>  <tasks>  (11) 
probe_placing close_aromatic_ring close_aromatic_ring close_aromatic_ring close_aromatic_ring ring_built build_to_Nd0

>  <prot_clashes>  (11) 
2

>  <NBS phar>  (11) 
0.2

>  <NBS_non-phar>  (11) 
0.7958453297615051

>  <NBS>  (11) 
0.9958453297615051

>  <source_stage>  (11) 
scored

>  <source_iter>  (11) 
5

>  <source_parent_mol>  (11) 
0

>  <source_scenario>  (11) 
1 0 1 0 0

>  <source_rank_in_scored_call>  (11) 
1

>  <source_current_task>  (11) 
build_to_Nd0

>  <scenario>  (11) 
1 0 1 0 0

>  <current_task>  (11) 
close_aromatic_ring

>  <rotatable_bond_torsions>  (11) 
1,0,2,7

>  <reason_to_skip>  (11) 
subgraph mismatch

$$$$

     RDKit          3D

  9  9  0  0  0  0  0  0  0  0999 V2000
  -27.9544   -7.5786  -31.0885 C   0  0  0  0  0  0  0  0  0  0  0  0
  -27.6252   -6.6792  -32.0546 N   0  0  0  0  0  0  0  0  0  0  0  0
  -27.6840   -8.8650  -31.2620 N   0  0  0  0  0  0  0  0  0  0  0  0
  -27.7723   -5.3521  -31.8910 C   0  0  0  0  0  0  0  0  0  0  0  0
  -28.2774   -4.8775  -30.6967 C   0  0  0  0  0  0  0  0  0  0  0  0
  -28.6304   -5.7525  -29.6749 C   0  0  0  0  0  0  0  0  0  0  0  0
  -28.4669   -7.1072  -29.8753 C   0  0  0  0  0  0  0  0  0  0  0  0
  -28.8046   -9.6905  -31.3453 C   0  0  0  0  0  0  0  0  0  0  0  0
  -28.9652  -10.6352  -30.3243 C   0  0  0  0  0  0  0  0  0  0  0  0
  1  2  2  0
  1  3  1  0
  2  4  1  0
  4  5  2  0
  5  6  1  0
  6  7  2  0
  1  7  1  0
  3  8  1  0
  8  9  1  0
M  END
>  <name>  (12) 
Car Nac Nd0 Car Car Car Car Car Car

>  <indices>  (12) 
[0, 1, 2]

>  <tasks>  (12) 
probe_placing close_aromatic_ring close_aromatic_ring close_aromatic_ring close_aromatic_ring ring_built build_to_Nd0

>  <prot_clashes>  (12) 
2

>  <NBS phar>  (12) 
0.2

>  <NBS_non-phar>  (12) 
0.7958453297615051

>  <NBS>  (12) 
0.9958453297615051

>  <source_stage>  (12) 
scored

>  <source_iter>  (12) 
5

>  <source_parent_mol>  (12) 
0

>  <source_scenario>  (12) 
1 0 1 0 0

>  <source_rank_in_scored_call>  (12) 
1

>  <source_current_task>  (12) 
build_to_Nd0

>  <scenario>  (12) 
1 0 1 0 0

>  <current_task>  (12) 
close_aromatic_ring

>  <rotatable_bond_torsions>  (12) 
1,0,2,7

>  <reason_to_skip>  (12) 
subgraph mismatch

$$$$

     RDKit          3D

  9  9  0  0  0  0  0  0  0  0999 V2000
  -27.9544   -7.5786  -31.0885 C   0  0  0  0  0  0  0  0  0  0  0  0
  -27.6252   -6.6792  -32.0546 N   0  0  0  0  0  0  0  0  0  0  0  0
  -27.6840   -8.8650  -31.2620 N   0  0  0  0  0  0  0  0  0  0  0  0
  -27.7723   -5.3521  -31.8910 C   0  0  0  0  0  0  0  0  0  0  0  0
  -28.2774   -4.8775  -30.6967 C   0  0  0  0  0  0  0  0  0  0  0  0
  -28.6304   -5.7525  -29.6749 C   0  0  0  0  0  0  0  0  0  0  0  0
  -28.4669   -7.1072  -29.8753 C   0  0  0  0  0  0  0  0  0  0  0  0
  -28.8046   -9.6905  -31.3453 C   0  0  0  0  0  0  0  0  0  0  0  0
  -28.6050  -11.0514  -31.3271 N   0  0  0  0  0  0  0  0  0  0  0  0
  1  2  2  0
  1  3  1  0
  2  4  1  0
  4  5  2  0
  5  6  1  0
  6  7  2  0
  1  7  1  0
  3  8  1  0
  8  9  1  0
M  END
>  <name>  (13) 
Car Nac Nd0 Car Car Car Car Car Nd0

>  <indices>  (13) 
[0, 1, 2]

>  <tasks>  (13) 
probe_placing close_aromatic_ring close_aromatic_ring close_aromatic_ring close_aromatic_ring ring_built build_to_Nd0

>  <prot_clashes>  (13) 
2

>  <NBS phar>  (13) 
0.2

>  <NBS_non-phar>  (13) 
0.7958453297615051

>  <NBS>  (13) 
0.9958453297615051

>  <source_stage>  (13) 
scored

>  <source_iter>  (13) 
5

>  <source_parent_mol>  (13) 
0

>  <source_scenario>  (13) 
1 0 1 0 0

>  <source_rank_in_scored_call>  (13) 
1

>  <source_current_task>  (13) 
build_to_Nd0

>  <scenario>  (13) 
1 0 1 0 0

>  <current_task>  (13) 
close_aromatic_ring

>  <rotatable_bond_torsions>  (13) 
1,0,2,7

>  <reason_to_skip>  (13) 
subgraph mismatch

$$$$

     RDKit          3D

  9  9  0  0  0  0  0  0  0  0999 V2000
  -27.9544   -7.5786  -31.0885 C   0  0  0  0  0  0  0  0  0  0  0  0
  -27.6252   -6.6792  -32.0546 N   0  0  0  0  0  0  0  0  0  0  0  0
  -27.6840   -8.8650  -31.2620 N   0  0  0  0  0  0  0  0  0  0  0  0
  -27.7723   -5.3521  -31.8910 C   0  0  0  0  0  0  0  0  0  0  0  0
  -28.2774   -4.8775  -30.6967 C   0  0  0  0  0  0  0  0  0  0  0  0
  -28.6304   -5.7525  -29.6749 C   0  0  0  0  0  0  0  0  0  0  0  0
  -28.4669   -7.1072  -29.8753 C   0  0  0  0  0  0  0  0  0  0  0  0
  -28.8046   -9.6905  -31.3453 C   0  0  0  0  0  0  0  0  0  0  0  0
  -30.0073   -9.1621  -31.2633 N   0  0  0  0  0  0  0  0  0  0  0  0
  1  2  2  0
  1  3  1  0
  2  4  1  0
  4  5  2  0
  5  6  1  0
  6  7  2  0
  1  7  1  0
  3  8  1  0
  8  9  1  0
M  END
>  <name>  (14) 
Car Nac Nd0 Car Car Car Car Car Nd0

>  <indices>  (14) 
[0, 1, 2]

>  <tasks>  (14) 
probe_placing close_aromatic_ring close_aromatic_ring close_aromatic_ring close_aromatic_ring ring_built build_to_Nd0

>  <prot_clashes>  (14) 
2

>  <NBS phar>  (14) 
0.2

>  <NBS_non-phar>  (14) 
0.7958453297615051

>  <NBS>  (14) 
0.9958453297615051

>  <source_stage>  (14) 
scored

>  <source_iter>  (14) 
5

>  <source_parent_mol>  (14) 
0

>  <source_scenario>  (14) 
1 0 1 0 0

>  <source_rank_in_scored_call>  (14) 
1

>  <source_current_task>  (14) 
build_to_Nd0

>  <scenario>  (14) 
1 0 1 0 0

>  <current_task>  (14) 
close_aromatic_ring

>  <rotatable_bond_torsions>  (14) 
1,0,2,7

>  <reason_to_skip>  (14) 
subgraph mismatch

$$$$

     RDKit          3D

  9  9  0  0  0  0  0  0  0  0999 V2000
  -27.9544   -7.5786  -31.0885 C   0  0  0  0  0  0  0  0  0  0  0  0
  -27.6252   -6.6792  -32.0546 N   0  0  0  0  0  0  0  0  0  0  0  0
  -27.6840   -8.8650  -31.2620 N   0  0  0  0  0  0  0  0  0  0  0  0
  -27.7723   -5.3521  -31.8910 C   0  0  0  0  0  0  0  0  0  0  0  0
  -28.2774   -4.8775  -30.6967 C   0  0  0  0  0  0  0  0  0  0  0  0
  -28.6304   -5.7525  -29.6749 C   0  0  0  0  0  0  0  0  0  0  0  0
  -28.4669   -7.1072  -29.8753 C   0  0  0  0  0  0  0  0  0  0  0  0
  -28.8046   -9.6905  -31.3453 C   0  0  0  0  0  0  0  0  0  0  0  0
  -28.5928  -11.0506  -31.4332 N   0  0  0  0  0  0  0  0  0  0  0  0
  1  2  2  0
  1  3  1  0
  2  4  1  0
  4  5  2  0
  5  6  1  0
  6  7  2  0
  1  7  1  0
  3  8  1  0
  8  9  2  0
M  END
>  <name>  (15) 
Car Nac Nd0 Car Car Car Car Car Nac

>  <indices>  (15) 
[0, 1, 2]

>  <tasks>  (15) 
probe_placing close_aromatic_ring close_aromatic_ring close_aromatic_ring close_aromatic_ring ring_built build_to_Nd0

>  <prot_clashes>  (15) 
2

>  <NBS phar>  (15) 
0.2

>  <NBS_non-phar>  (15) 
0.7958453297615051

>  <NBS>  (15) 
0.9958453297615051

>  <source_stage>  (15) 
scored

>  <source_iter>  (15) 
5

>  <source_parent_mol>  (15) 
0

>  <source_scenario>  (15) 
1 0 1 0 0

>  <source_rank_in_scored_call>  (15) 
1

>  <source_current_task>  (15) 
build_to_Nd0

>  <scenario>  (15) 
1 0 1 0 0

>  <current_task>  (15) 
close_aromatic_ring

>  <rotatable_bond_torsions>  (15) 
1,0,2,7

>  <reason_to_skip>  (15) 
subgraph mismatch

$$$$

     RDKit          3D

  9  9  0  0  0  0  0  0  0  0999 V2000
  -27.9544   -7.5786  -31.0885 C   0  0  0  0  0  0  0  0  0  0  0  0
  -27.6252   -6.6792  -32.0546 N   0  0  0  0  0  0  0  0  0  0  0  0
  -27.6840   -8.8650  -31.2620 N   0  0  0  0  0  0  0  0  0  0  0  0
  -27.7723   -5.3521  -31.8910 C   0  0  0  0  0  0  0  0  0  0  0  0
  -28.2774   -4.8775  -30.6967 C   0  0  0  0  0  0  0  0  0  0  0  0
  -28.6304   -5.7525  -29.6749 C   0  0  0  0  0  0  0  0  0  0  0  0
  -28.4669   -7.1072  -29.8753 C   0  0  0  0  0  0  0  0  0  0  0  0
  -28.8046   -9.6905  -31.3453 C   0  0  0  0  0  0  0  0  0  0  0  0
  -29.9109   -9.6546  -30.6508 N   0  0  0  0  0  0  0  0  0  0  0  0
  1  2  2  0
  1  3  1  0
  2  4  1  0
  4  5  2  0
  5  6  1  0
  6  7  2  0
  1  7  1  0
  3  8  1  0
  8  9  2  0
M  END
>  <name>  (16) 
Car Nac Nd0 Car Car Car Car Car Nac

>  <indices>  (16) 
[0, 1, 2]

>  <tasks>  (16) 
probe_placing close_aromatic_ring close_aromatic_ring close_aromatic_ring close_aromatic_ring ring_built build_to_Nd0

>  <prot_clashes>  (16) 
2

>  <NBS phar>  (16) 
0.2

>  <NBS_non-phar>  (16) 
0.7958453297615051

>  <NBS>  (16) 
0.9958453297615051

>  <source_stage>  (16) 
scored

>  <source_iter>  (16) 
5

>  <source_parent_mol>  (16) 
0

>  <source_scenario>  (16) 
1 0 1 0 0

>  <source_rank_in_scored_call>  (16) 
1

>  <source_current_task>  (16) 
build_to_Nd0

>  <scenario>  (16) 
1 0 1 0 0

>  <current_task>  (16) 
close_aromatic_ring

>  <rotatable_bond_torsions>  (16) 
1,0,2,7

>  <reason_to_skip>  (16) 
subgraph mismatch

$$$$

     RDKit          3D

  9  9  0  0  0  0  0  0  0  0999 V2000
  -27.9544   -7.5786  -31.0885 C   0  0  0  0  0  0  0  0  0  0  0  0
  -27.6252   -6.6792  -32.0546 N   0  0  0  0  0  0  0  0  0  0  0  0
  -27.6840   -8.8650  -31.2620 N   0  0  0  0  0  0  0  0  0  0  0  0
  -27.7723   -5.3521  -31.8910 C   0  0  0  0  0  0  0  0  0  0  0  0
  -28.2774   -4.8775  -30.6967 C   0  0  0  0  0  0  0  0  0  0  0  0
  -28.6304   -5.7525  -29.6749 C   0  0  0  0  0  0  0  0  0  0  0  0
  -28.4669   -7.1072  -29.8753 C   0  0  0  0  0  0  0  0  0  0  0  0
  -28.8046   -9.6905  -31.3453 C   0  0  0  0  0  0  0  0  0  0  0  0
  -29.2023  -10.2478  -32.4950 N   0  0  0  0  0  0  0  0  0  0  0  0
  1  2  2  0
  1  3  1  0
  2  4  1  0
  4  5  2  0
  5  6  1  0
  6  7  2  0
  1  7  1  0
  3  8  1  0
  8  9  2  0
M  END
>  <name>  (17) 
Car Nac Nd0 Car Car Car Car Car Nac

>  <indices>  (17) 
[0, 1, 2]

>  <tasks>  (17) 
probe_placing close_aromatic_ring close_aromatic_ring close_aromatic_ring close_aromatic_ring ring_built build_to_Nd0

>  <prot_clashes>  (17) 
2

>  <NBS phar>  (17) 
0.2

>  <NBS_non-phar>  (17) 
0.7958453297615051

>  <NBS>  (17) 
0.9958453297615051

>  <source_stage>  (17) 
scored

>  <source_iter>  (17) 
5

>  <source_parent_mol>  (17) 
0

>  <source_scenario>  (17) 
1 0 1 0 0

>  <source_rank_in_scored_call>  (17) 
1

>  <source_current_task>  (17) 
build_to_Nd0

>  <scenario>  (17) 
1 0 1 0 0

>  <current_task>  (17) 
close_aromatic_ring

>  <rotatable_bond_torsions>  (17) 
1,0,2,7

>  <reason_to_skip>  (17) 
subgraph mismatch

$$$$

     RDKit          3D

  9  9  0  0  0  0  0  0  0  0999 V2000
  -27.9544   -7.5786  -31.0885 C   0  0  0  0  0  0  0  0  0  0  0  0
  -27.6252   -6.6792  -32.0546 N   0  0  0  0  0  0  0  0  0  0  0  0
  -27.6840   -8.8650  -31.2620 N   0  0  0  0  0  0  0  0  0  0  0  0
  -27.7723   -5.3521  -31.8910 C   0  0  0  0  0  0  0  0  0  0  0  0
  -28.2774   -4.8775  -30.6967 C   0  0  0  0  0  0  0  0  0  0  0  0
  -28.6304   -5.7525  -29.6749 C   0  0  0  0  0  0  0  0  0  0  0  0
  -28.4669   -7.1072  -29.8753 C   0  0  0  0  0  0  0  0  0  0  0  0
  -28.8046   -9.6905  -31.3453 C   0  0  0  0  0  0  0  0  0  0  0  0
  -30.0270   -9.3219  -31.1108 N   0  0  0  0  0  0  0  0  0  0  0  0
  1  2  2  0
  1  3  1  0
  2  4  1  0
  4  5  2  0
  5  6  1  0
  6  7  2  0
  1  7  1  0
  3  8  1  0
  8  9  1  0
M  END
>  <name>  (18) 
Car Nac Nd0 Car Car Car Car Car Nac

>  <indices>  (18) 
[0, 1, 2]

>  <tasks>  (18) 
probe_placing close_aromatic_ring close_aromatic_ring close_aromatic_ring close_aromatic_ring ring_built build_to_Nd0

>  <prot_clashes>  (18) 
2

>  <NBS phar>  (18) 
0.2

>  <NBS_non-phar>  (18) 
0.7958453297615051

>  <NBS>  (18) 
0.9958453297615051

>  <source_stage>  (18) 
scored

>  <source_iter>  (18) 
5

>  <source_parent_mol>  (18) 
0

>  <source_scenario>  (18) 
1 0 1 0 0

>  <source_rank_in_scored_call>  (18) 
1

>  <source_current_task>  (18) 
build_to_Nd0

>  <scenario>  (18) 
1 0 1 0 0

>  <current_task>  (18) 
close_aromatic_ring

>  <rotatable_bond_torsions>  (18) 
1,0,2,7

>  <reason_to_skip>  (18) 
subgraph mismatch

$$$$

     RDKit          3D

  9  9  0  0  0  0  0  0  0  0999 V2000
  -27.9544   -7.5786  -31.0885 C   0  0  0  0  0  0  0  0  0  0  0  0
  -27.6252   -6.6792  -32.0546 N   0  0  0  0  0  0  0  0  0  0  0  0
  -27.6840   -8.8650  -31.2620 N   0  0  0  0  0  0  0  0  0  0  0  0
  -27.7723   -5.3521  -31.8910 C   0  0  0  0  0  0  0  0  0  0  0  0
  -28.2774   -4.8775  -30.6967 C   0  0  0  0  0  0  0  0  0  0  0  0
  -28.6304   -5.7525  -29.6749 C   0  0  0  0  0  0  0  0  0  0  0  0
  -28.4669   -7.1072  -29.8753 C   0  0  0  0  0  0  0  0  0  0  0  0
  -28.8046   -9.6905  -31.3453 C   0  0  0  0  0  0  0  0  0  0  0  0
  -28.9241  -10.9529  -31.5193 N   0  0  0  0  0  0  0  0  0  0  0  0
  1  2  2  0
  1  3  1  0
  2  4  1  0
  4  5  2  0
  5  6  1  0
  6  7  2  0
  1  7  1  0
  3  8  1  0
  8  9  1  0
M  END
>  <name>  (19) 
Car Nac Nd0 Car Car Car Car Car Nac

>  <indices>  (19) 
[0, 1, 2]

>  <tasks>  (19) 
probe_placing close_aromatic_ring close_aromatic_ring close_aromatic_ring close_aromatic_ring ring_built build_to_Nd0

>  <prot_clashes>  (19) 
2

>  <NBS phar>  (19) 
0.2

>  <NBS_non-phar>  (19) 
0.7958453297615051

>  <NBS>  (19) 
0.9958453297615051

>  <source_stage>  (19) 
scored

>  <source_iter>  (19) 
5

>  <source_parent_mol>  (19) 
0

>  <source_scenario>  (19) 
1 0 1 0 0

>  <source_rank_in_scored_call>  (19) 
1

>  <source_current_task>  (19) 
build_to_Nd0

>  <scenario>  (19) 
1 0 1 0 0

>  <current_task>  (19) 
close_aromatic_ring

>  <rotatable_bond_torsions>  (19) 
1,0,2,7

>  <reason_to_skip>  (19) 
subgraph mismatch

$$$$

     RDKit          3D

  9  9  0  0  0  0  0  0  0  0999 V2000
  -27.9544   -7.5786  -31.0885 C   0  0  0  0  0  0  0  0  0  0  0  0
  -27.6252   -6.6792  -32.0546 N   0  0  0  0  0  0  0  0  0  0  0  0
  -27.6840   -8.8650  -31.2620 N   0  0  0  0  0  0  0  0  0  0  0  0
  -27.7723   -5.3521  -31.8910 C   0  0  0  0  0  0  0  0  0  0  0  0
  -28.2774   -4.8775  -30.6967 C   0  0  0  0  0  0  0  0  0  0  0  0
  -28.6304   -5.7525  -29.6749 C   0  0  0  0  0  0  0  0  0  0  0  0
  -28.4669   -7.1072  -29.8753 C   0  0  0  0  0  0  0  0  0  0  0  0
  -28.8046   -9.6905  -31.3453 C   0  0  0  0  0  0  0  0  0  0  0  0
  -28.9537  -10.6024  -30.3720 N   0  0  0  0  0  0  0  0  0  0  0  0
  1  2  2  0
  1  3  1  0
  2  4  1  0
  4  5  2  0
  5  6  1  0
  6  7  2  0
  1  7  1  0
  3  8  1  0
  8  9  1  0
M  END
>  <name>  (20) 
Car Nac Nd0 Car Car Car Car Car Nac

>  <indices>  (20) 
[0, 1, 2]

>  <tasks>  (20) 
probe_placing close_aromatic_ring close_aromatic_ring close_aromatic_ring close_aromatic_ring ring_built build_to_Nd0

>  <prot_clashes>  (20) 
2

>  <NBS phar>  (20) 
0.2

>  <NBS_non-phar>  (20) 
0.7958453297615051

>  <NBS>  (20) 
0.9958453297615051

>  <source_stage>  (20) 
scored

>  <source_iter>  (20) 
5

>  <source_parent_mol>  (20) 
0

>  <source_scenario>  (20) 
1 0 1 0 0

>  <source_rank_in_scored_call>  (20) 
1

>  <source_current_task>  (20) 
build_to_Nd0

>  <scenario>  (20) 
1 0 1 0 0

>  <current_task>  (20) 
close_aromatic_ring

>  <rotatable_bond_torsions>  (20) 
1,0,2,7

>  <reason_to_skip>  (20) 
subgraph mismatch

$$$$

     RDKit          3D

  9  9  0  0  0  0  0  0  0  0999 V2000
  -27.9544   -7.5786  -31.0885 C   0  0  0  0  0  0  0  0  0  0  0  0
  -27.6252   -6.6792  -32.0546 N   0  0  0  0  0  0  0  0  0  0  0  0
  -27.6840   -8.8650  -31.2620 N   0  0  0  0  0  0  0  0  0  0  0  0
  -27.7723   -5.3521  -31.8910 C   0  0  0  0  0  0  0  0  0  0  0  0
  -28.2774   -4.8775  -30.6967 C   0  0  0  0  0  0  0  0  0  0  0  0
  -28.6304   -5.7525  -29.6749 C   0  0  0  0  0  0  0  0  0  0  0  0
  -28.4669   -7.1072  -29.8753 C   0  0  0  0  0  0  0  0  0  0  0  0
  -28.8046   -9.6905  -31.3453 C   0  0  0  0  0  0  0  0  0  0  0  0
  -29.5539   -9.9930  -32.5031 N   0  0  0  0  0  0  0  0  0  0  0  0
  1  2  2  0
  1  3  1  0
  2  4  1  0
  4  5  2  0
  5  6  1  0
  6  7  2  0
  1  7  1  0
  3  8  1  0
  8  9  1  0
M  END
>  <name>  (21) 
Car Nac Nd0 Car Car Car Car Car Nac

>  <indices>  (21) 
[0, 1, 2]

>  <tasks>  (21) 
probe_placing close_aromatic_ring close_aromatic_ring close_aromatic_ring close_aromatic_ring ring_built build_to_Nd0

>  <prot_clashes>  (21) 
2

>  <NBS phar>  (21) 
0.2

>  <NBS_non-phar>  (21) 
0.7958453297615051

>  <NBS>  (21) 
0.9958453297615051

>  <source_stage>  (21) 
scored

>  <source_iter>  (21) 
5

>  <source_parent_mol>  (21) 
0

>  <source_scenario>  (21) 
1 0 1 0 0

>  <source_rank_in_scored_call>  (21) 
1

>  <source_current_task>  (21) 
build_to_Nd0

>  <scenario>  (21) 
1 0 1 0 0

>  <current_task>  (21) 
close_aromatic_ring

>  <rotatable_bond_torsions>  (21) 
1,0,2,7

>  <reason_to_skip>  (21) 
subgraph mismatch

$$$$

     RDKit          3D

  9  9  0  0  0  0  0  0  0  0999 V2000
  -27.9544   -7.5786  -31.0885 C   0  0  0  0  0  0  0  0  0  0  0  0
  -27.6252   -6.6792  -32.0546 N   0  0  0  0  0  0  0  0  0  0  0  0
  -27.6840   -8.8650  -31.2620 N   0  0  0  0  0  0  0  0  0  0  0  0
  -27.7723   -5.3521  -31.8910 C   0  0  0  0  0  0  0  0  0  0  0  0
  -28.2774   -4.8775  -30.6967 C   0  0  0  0  0  0  0  0  0  0  0  0
  -28.6304   -5.7525  -29.6749 C   0  0  0  0  0  0  0  0  0  0  0  0
  -28.4669   -7.1072  -29.8753 C   0  0  0  0  0  0  0  0  0  0  0  0
  -28.4577   -9.7167  -32.1581 C   0  0  0  0  0  0  0  0  0  0  0  0
    0.0000    0.0000    0.0000 S   0  0  0  0  0  0  0  0  0  0  0  0
  1  2  2  0
  1  3  1  0
  2  4  1  0
  4  5  2  0
  5  6  1  0
  6  7  2  0
  1  7  1  0
  3  8  1  0
  8  9  1  0
M  END
>  <name>  (1) 
Car Nac Nd0 Car Car Car Car Car Sul

>  <indices>  (1) 
[0, 1, 2]

>  <tasks>  (1) 
probe_placing close_aromatic_ring close_aromatic_ring close_aromatic_ring close_aromatic_ring ring_built build_to_Nd0

>  <prot_clashes>  (1) 
1

>  <NBS phar>  (1) 
0.2

>  <NBS_non-phar>  (1) 
0.791672945022583

>  <NBS>  (1) 
0.991672945022583

>  <source_stage>  (1) 
scored

>  <source_iter>  (1) 
5

>  <source_parent_mol>  (1) 
0

>  <source_scenario>  (1) 
1 0 1 0 0

>  <source_rank_in_scored_call>  (1) 
3

>  <source_current_task>  (1) 
build_to_Nd0

>  <scenario>  (1) 
1 0 1 0 0

>  <current_task>  (1) 
close_aromatic_ring

>  <rotatable_bond_torsions>  (1) 
1,0,2,7

>  <reason_to_skip>  (1) 
some_atom_counter_exceeded

$$$$

     RDKit          3D

  9  9  0  0  0  0  0  0  0  0999 V2000
  -27.9544   -7.5786  -31.0885 C   0  0  0  0  0  0  0  0  0  0  0  0
  -27.6252   -6.6792  -32.0546 N   0  0  0  0  0  0  0  0  0  0  0  0
  -27.6840   -8.8650  -31.2620 N   0  0  0  0  0  0  0  0  0  0  0  0
  -27.7723   -5.3521  -31.8910 C   0  0  0  0  0  0  0  0  0  0  0  0
  -28.2774   -4.8775  -30.6967 C   0  0  0  0  0  0  0  0  0  0  0  0
  -28.6304   -5.7525  -29.6749 C   0  0  0  0  0  0  0  0  0  0  0  0
  -28.4669   -7.1072  -29.8753 C   0  0  0  0  0  0  0  0  0  0  0  0
  -28.4577   -9.7167  -32.1581 C   0  0  0  0  0  0  0  0  0  0  0  0
  -28.4159  -10.8614  -32.4914 N   0  0  0  0  0  0  0  0  0  0  0  0
  1  2  2  0
  1  3  1  0
  2  4  1  0
  4  5  2  0
  5  6  1  0
  6  7  2  0
  1  7  1  0
  3  8  1  0
  8  9  1  0
M  END
>  <name>  (2) 
Car Nac Nd0 Car Car Car Car Car Nac

>  <indices>  (2) 
[0, 1, 2]

>  <tasks>  (2) 
probe_placing close_aromatic_ring close_aromatic_ring close_aromatic_ring close_aromatic_ring ring_built build_to_Nd0

>  <prot_clashes>  (2) 
1

>  <NBS phar>  (2) 
0.2

>  <NBS_non-phar>  (2) 
0.791672945022583

>  <NBS>  (2) 
0.991672945022583

>  <source_stage>  (2) 
scored

>  <source_iter>  (2) 
5

>  <source_parent_mol>  (2) 
0

>  <source_scenario>  (2) 
1 0 1 0 0

>  <source_rank_in_scored_call>  (2) 
3

>  <source_current_task>  (2) 
build_to_Nd0

>  <scenario>  (2) 
1 0 1 0 0

>  <current_task>  (2) 
close_aromatic_ring

>  <rotatable_bond_torsions>  (2) 
1,0,2,7

>  <reason_to_skip>  (2) 
bad angles

$$$$

     RDKit          3D

  9  9  0  0  0  0  0  0  0  0999 V2000
  -27.9544   -7.5786  -31.0885 C   0  0  0  0  0  0  0  0  0  0  0  0
  -27.6252   -6.6792  -32.0546 N   0  0  0  0  0  0  0  0  0  0  0  0
  -27.6840   -8.8650  -31.2620 N   0  0  0  0  0  0  0  0  0  0  0  0
  -27.7723   -5.3521  -31.8910 C   0  0  0  0  0  0  0  0  0  0  0  0
  -28.2774   -4.8775  -30.6967 C   0  0  0  0  0  0  0  0  0  0  0  0
  -28.6304   -5.7525  -29.6749 C   0  0  0  0  0  0  0  0  0  0  0  0
  -28.4669   -7.1072  -29.8753 C   0  0  0  0  0  0  0  0  0  0  0  0
  -28.4577   -9.7167  -32.1581 C   0  0  0  0  0  0  0  0  0  0  0  0
    0.0000    0.0000    0.0000 S   0  0  0  0  0  0  0  0  0  0  0  0
  1  2  2  0
  1  3  1  0
  2  4  1  0
  4  5  2  0
  5  6  1  0
  6  7  2  0
  1  7  1  0
  3  8  1  0
  8  9  1  0
M  END
>  <name>  (3) 
Car Nac Nd0 Car Car Car Car Car Sul

>  <indices>  (3) 
[0, 1, 2]

>  <tasks>  (3) 
probe_placing close_aromatic_ring close_aromatic_ring close_aromatic_ring close_aromatic_ring ring_built build_to_Nd0

>  <prot_clashes>  (3) 
1

>  <NBS phar>  (3) 
0.2

>  <NBS_non-phar>  (3) 
0.791672945022583

>  <NBS>  (3) 
0.991672945022583

>  <source_stage>  (3) 
scored

>  <source_iter>  (3) 
5

>  <source_parent_mol>  (3) 
0

>  <source_scenario>  (3) 
1 0 1 0 0

>  <source_rank_in_scored_call>  (3) 
3

>  <source_current_task>  (3) 
build_to_Nd0

>  <scenario>  (3) 
1 0 1 0 0

>  <current_task>  (3) 
close_aromatic_ring

>  <rotatable_bond_torsions>  (3) 
1,0,2,7

>  <reason_to_skip>  (3) 
some_atom_counter_exceeded

$$$$

     RDKit          3D

  9  9  0  0  0  0  0  0  0  0999 V2000
  -27.9544   -7.5786  -31.0885 C   0  0  0  0  0  0  0  0  0  0  0  0
  -27.6252   -6.6792  -32.0546 N   0  0  0  0  0  0  0  0  0  0  0  0
  -27.6840   -8.8650  -31.2620 N   0  0  0  0  0  0  0  0  0  0  0  0
  -27.7723   -5.3521  -31.8910 C   0  0  0  0  0  0  0  0  0  0  0  0
  -28.2774   -4.8775  -30.6967 C   0  0  0  0  0  0  0  0  0  0  0  0
  -28.6304   -5.7525  -29.6749 C   0  0  0  0  0  0  0  0  0  0  0  0
  -28.4669   -7.1072  -29.8753 C   0  0  0  0  0  0  0  0  0  0  0  0
  -28.4577   -9.7167  -32.1581 C   0  0  0  0  0  0  0  0  0  0  0  0
    0.0000    0.0000    0.0000 O   0  0  0  0  0  0  0  0  0  0  0  0
  1  2  2  0
  1  3  1  0
  2  4  1  0
  4  5  2  0
  5  6  1  0
  6  7  2  0
  1  7  1  0
  3  8  1  0
  8  9  1  0
M  END
>  <name>  (4) 
Car Nac Nd0 Car Car Car Car Car O_a

>  <indices>  (4) 
[0, 1, 2]

>  <tasks>  (4) 
probe_placing close_aromatic_ring close_aromatic_ring close_aromatic_ring close_aromatic_ring ring_built build_to_Nd0

>  <prot_clashes>  (4) 
1

>  <NBS phar>  (4) 
0.2

>  <NBS_non-phar>  (4) 
0.791672945022583

>  <NBS>  (4) 
0.991672945022583

>  <source_stage>  (4) 
scored

>  <source_iter>  (4) 
5

>  <source_parent_mol>  (4) 
0

>  <source_scenario>  (4) 
1 0 1 0 0

>  <source_rank_in_scored_call>  (4) 
3

>  <source_current_task>  (4) 
build_to_Nd0

>  <scenario>  (4) 
1 0 1 0 0

>  <current_task>  (4) 
close_aromatic_ring

>  <rotatable_bond_torsions>  (4) 
1,0,2,7

>  <reason_to_skip>  (4) 
some_atom_counter_exceeded

$$$$

     RDKit          3D

  9  9  0  0  0  0  0  0  0  0999 V2000
  -27.9544   -7.5786  -31.0885 C   0  0  0  0  0  0  0  0  0  0  0  0
  -27.6252   -6.6792  -32.0546 N   0  0  0  0  0  0  0  0  0  0  0  0
  -27.6840   -8.8650  -31.2620 N   0  0  0  0  0  0  0  0  0  0  0  0
  -27.7723   -5.3521  -31.8910 C   0  0  0  0  0  0  0  0  0  0  0  0
  -28.2774   -4.8775  -30.6967 C   0  0  0  0  0  0  0  0  0  0  0  0
  -28.6304   -5.7525  -29.6749 C   0  0  0  0  0  0  0  0  0  0  0  0
  -28.4669   -7.1072  -29.8753 C   0  0  0  0  0  0  0  0  0  0  0  0
  -28.4577   -9.7167  -32.1581 C   0  0  0  0  0  0  0  0  0  0  0  0
    0.0000    0.0000    0.0000 S   0  0  0  0  0  0  0  0  0  0  0  0
  1  2  2  0
  1  3  1  0
  2  4  1  0
  4  5  2  0
  5  6  1  0
  6  7  2  0
  1  7  1  0
  3  8  1  0
  8  9  1  0
M  END
>  <name>  (5) 
Car Nac Nd0 Car Car Car Car Car Sul

>  <indices>  (5) 
[0, 1, 2]

>  <tasks>  (5) 
probe_placing close_aromatic_ring close_aromatic_ring close_aromatic_ring close_aromatic_ring ring_built build_to_Nd0

>  <prot_clashes>  (5) 
1

>  <NBS phar>  (5) 
0.2

>  <NBS_non-phar>  (5) 
0.791672945022583

>  <NBS>  (5) 
0.991672945022583

>  <source_stage>  (5) 
scored

>  <source_iter>  (5) 
5

>  <source_parent_mol>  (5) 
0

>  <source_scenario>  (5) 
1 0 1 0 0

>  <source_rank_in_scored_call>  (5) 
3

>  <source_current_task>  (5) 
build_to_Nd0

>  <scenario>  (5) 
1 0 1 0 0

>  <current_task>  (5) 
close_aromatic_ring

>  <rotatable_bond_torsions>  (5) 
1,0,2,7

>  <reason_to_skip>  (5) 
some_atom_counter_exceeded

$$$$

     RDKit          3D

  9  9  0  0  0  0  0  0  0  0999 V2000
  -27.9544   -7.5786  -31.0885 C   0  0  0  0  0  0  0  0  0  0  0  0
  -27.6252   -6.6792  -32.0546 N   0  0  0  0  0  0  0  0  0  0  0  0
  -27.6840   -8.8650  -31.2620 N   0  0  0  0  0  0  0  0  0  0  0  0
  -27.7723   -5.3521  -31.8910 C   0  0  0  0  0  0  0  0  0  0  0  0
  -28.2774   -4.8775  -30.6967 C   0  0  0  0  0  0  0  0  0  0  0  0
  -28.6304   -5.7525  -29.6749 C   0  0  0  0  0  0  0  0  0  0  0  0
  -28.4669   -7.1072  -29.8753 C   0  0  0  0  0  0  0  0  0  0  0  0
  -28.4577   -9.7167  -32.1581 C   0  0  0  0  0  0  0  0  0  0  0  0
  -29.4120   -8.7280  -32.6222 C   0  0  0  0  0  0  0  0  0  0  0  0
  1  2  2  0
  1  3  1  0
  2  4  1  0
  4  5  2  0
  5  6  1  0
  6  7  2  0
  1  7  1  0
  3  8  1  0
  8  9  2  0
M  END
>  <name>  (6) 
Car Nac Nd0 Car Car Car Car Car Car

>  <indices>  (6) 
[0, 1, 2]

>  <tasks>  (6) 
probe_placing close_aromatic_ring close_aromatic_ring close_aromatic_ring close_aromatic_ring ring_built build_to_Nd0

>  <prot_clashes>  (6) 
1

>  <NBS phar>  (6) 
0.2

>  <NBS_non-phar>  (6) 
0.791672945022583

>  <NBS>  (6) 
0.991672945022583

>  <source_stage>  (6) 
scored

>  <source_iter>  (6) 
5

>  <source_parent_mol>  (6) 
0

>  <source_scenario>  (6) 
1 0 1 0 0

>  <source_rank_in_scored_call>  (6) 
3

>  <source_current_task>  (6) 
build_to_Nd0

>  <scenario>  (6) 
1 0 1 0 0

>  <current_task>  (6) 
close_aromatic_ring

>  <rotatable_bond_torsions>  (6) 
1,0,2,7

>  <reason_to_skip>  (6) 
bad angles

$$$$

     RDKit          3D

  9  9  0  0  0  0  0  0  0  0999 V2000
  -27.9544   -7.5786  -31.0885 C   0  0  0  0  0  0  0  0  0  0  0  0
  -27.6252   -6.6792  -32.0546 N   0  0  0  0  0  0  0  0  0  0  0  0
  -27.6840   -8.8650  -31.2620 N   0  0  0  0  0  0  0  0  0  0  0  0
  -27.7723   -5.3521  -31.8910 C   0  0  0  0  0  0  0  0  0  0  0  0
  -28.2774   -4.8775  -30.6967 C   0  0  0  0  0  0  0  0  0  0  0  0
  -28.6304   -5.7525  -29.6749 C   0  0  0  0  0  0  0  0  0  0  0  0
  -28.4669   -7.1072  -29.8753 C   0  0  0  0  0  0  0  0  0  0  0  0
  -28.4577   -9.7167  -32.1581 C   0  0  0  0  0  0  0  0  0  0  0  0
  -29.5161   -9.1531  -32.8401 C   0  0  0  0  0  0  0  0  0  0  0  0
  1  2  2  0
  1  3  1  0
  2  4  1  0
  4  5  2  0
  5  6  1  0
  6  7  2  0
  1  7  1  0
  3  8  1  0
  8  9  2  0
M  END
>  <name>  (7) 
Car Nac Nd0 Car Car Car Car Car Car

>  <indices>  (7) 
[0, 1, 2]

>  <tasks>  (7) 
probe_placing close_aromatic_ring close_aromatic_ring close_aromatic_ring close_aromatic_ring ring_built build_to_Nd0

>  <prot_clashes>  (7) 
1

>  <NBS phar>  (7) 
0.2

>  <NBS_non-phar>  (7) 
0.791672945022583

>  <NBS>  (7) 
0.991672945022583

>  <source_stage>  (7) 
scored

>  <source_iter>  (7) 
5

>  <source_parent_mol>  (7) 
0

>  <source_scenario>  (7) 
1 0 1 0 0

>  <source_rank_in_scored_call>  (7) 
3

>  <source_current_task>  (7) 
build_to_Nd0

>  <scenario>  (7) 
1 0 1 0 0

>  <current_task>  (7) 
close_aromatic_ring

>  <rotatable_bond_torsions>  (7) 
1,0,2,7

>  <reason_to_skip>  (7) 
subgraph mismatch

$$$$

     RDKit          3D

  9  9  0  0  0  0  0  0  0  0999 V2000
  -27.9544   -7.5786  -31.0885 C   0  0  0  0  0  0  0  0  0  0  0  0
  -27.6252   -6.6792  -32.0546 N   0  0  0  0  0  0  0  0  0  0  0  0
  -27.6840   -8.8650  -31.2620 N   0  0  0  0  0  0  0  0  0  0  0  0
  -27.7723   -5.3521  -31.8910 C   0  0  0  0  0  0  0  0  0  0  0  0
  -28.2774   -4.8775  -30.6967 C   0  0  0  0  0  0  0  0  0  0  0  0
  -28.6304   -5.7525  -29.6749 C   0  0  0  0  0  0  0  0  0  0  0  0
  -28.4669   -7.1072  -29.8753 C   0  0  0  0  0  0  0  0  0  0  0  0
  -28.4577   -9.7167  -32.1581 C   0  0  0  0  0  0  0  0  0  0  0  0
  -28.0233  -10.9940  -32.3953 C   0  0  0  0  0  0  0  0  0  0  0  0
  1  2  2  0
  1  3  1  0
  2  4  1  0
  4  5  2  0
  5  6  1  0
  6  7  2  0
  1  7  1  0
  3  8  1  0
  8  9  2  0
M  END
>  <name>  (8) 
Car Nac Nd0 Car Car Car Car Car Car

>  <indices>  (8) 
[0, 1, 2]

>  <tasks>  (8) 
probe_placing close_aromatic_ring close_aromatic_ring close_aromatic_ring close_aromatic_ring ring_built build_to_Nd0

>  <prot_clashes>  (8) 
1

>  <NBS phar>  (8) 
0.2

>  <NBS_non-phar>  (8) 
0.791672945022583

>  <NBS>  (8) 
0.991672945022583

>  <source_stage>  (8) 
scored

>  <source_iter>  (8) 
5

>  <source_parent_mol>  (8) 
0

>  <source_scenario>  (8) 
1 0 1 0 0

>  <source_rank_in_scored_call>  (8) 
3

>  <source_current_task>  (8) 
build_to_Nd0

>  <scenario>  (8) 
1 0 1 0 0

>  <current_task>  (8) 
close_aromatic_ring

>  <rotatable_bond_torsions>  (8) 
1,0,2,7

>  <reason_to_skip>  (8) 
subgraph mismatch

$$$$

     RDKit          3D

  9  9  0  0  0  0  0  0  0  0999 V2000
  -27.9544   -7.5786  -31.0885 C   0  0  0  0  0  0  0  0  0  0  0  0
  -27.6252   -6.6792  -32.0546 N   0  0  0  0  0  0  0  0  0  0  0  0
  -27.6840   -8.8650  -31.2620 N   0  0  0  0  0  0  0  0  0  0  0  0
  -27.7723   -5.3521  -31.8910 C   0  0  0  0  0  0  0  0  0  0  0  0
  -28.2774   -4.8775  -30.6967 C   0  0  0  0  0  0  0  0  0  0  0  0
  -28.6304   -5.7525  -29.6749 C   0  0  0  0  0  0  0  0  0  0  0  0
  -28.4669   -7.1072  -29.8753 C   0  0  0  0  0  0  0  0  0  0  0  0
  -28.4577   -9.7167  -32.1581 C   0  0  0  0  0  0  0  0  0  0  0  0
  -29.1647  -10.7926  -31.6194 C   0  0  0  0  0  0  0  0  0  0  0  0
  1  2  2  0
  1  3  1  0
  2  4  1  0
  4  5  2  0
  5  6  1  0
  6  7  2  0
  1  7  1  0
  3  8  1  0
  8  9  2  0
M  END
>  <name>  (9) 
Car Nac Nd0 Car Car Car Car Car Car

>  <indices>  (9) 
[0, 1, 2]

>  <tasks>  (9) 
probe_placing close_aromatic_ring close_aromatic_ring close_aromatic_ring close_aromatic_ring ring_built build_to_Nd0

>  <prot_clashes>  (9) 
1

>  <NBS phar>  (9) 
0.2

>  <NBS_non-phar>  (9) 
0.791672945022583

>  <NBS>  (9) 
0.991672945022583

>  <source_stage>  (9) 
scored

>  <source_iter>  (9) 
5

>  <source_parent_mol>  (9) 
0

>  <source_scenario>  (9) 
1 0 1 0 0

>  <source_rank_in_scored_call>  (9) 
3

>  <source_current_task>  (9) 
build_to_Nd0

>  <scenario>  (9) 
1 0 1 0 0

>  <current_task>  (9) 
close_aromatic_ring

>  <rotatable_bond_torsions>  (9) 
1,0,2,7

>  <reason_to_skip>  (9) 
subgraph mismatch

$$$$

     RDKit          3D

  9  9  0  0  0  0  0  0  0  0999 V2000
  -27.9544   -7.5786  -31.0885 C   0  0  0  0  0  0  0  0  0  0  0  0
  -27.6252   -6.6792  -32.0546 N   0  0  0  0  0  0  0  0  0  0  0  0
  -27.6840   -8.8650  -31.2620 N   0  0  0  0  0  0  0  0  0  0  0  0
  -27.7723   -5.3521  -31.8910 C   0  0  0  0  0  0  0  0  0  0  0  0
  -28.2774   -4.8775  -30.6967 C   0  0  0  0  0  0  0  0  0  0  0  0
  -28.6304   -5.7525  -29.6749 C   0  0  0  0  0  0  0  0  0  0  0  0
  -28.4669   -7.1072  -29.8753 C   0  0  0  0  0  0  0  0  0  0  0  0
  -28.4577   -9.7167  -32.1581 C   0  0  0  0  0  0  0  0  0  0  0  0
  -27.9143  -10.1773  -33.3487 C   0  0  0  0  0  0  0  0  0  0  0  0
  1  2  2  0
  1  3  1  0
  2  4  1  0
  4  5  2  0
  5  6  1  0
  6  7  2  0
  1  7  1  0
  3  8  1  0
  8  9  2  0
M  END
>  <name>  (10) 
Car Nac Nd0 Car Car Car Car Car Car

>  <indices>  (10) 
[0, 1, 2]

>  <tasks>  (10) 
probe_placing close_aromatic_ring close_aromatic_ring close_aromatic_ring close_aromatic_ring ring_built build_to_Nd0

>  <prot_clashes>  (10) 
1

>  <NBS phar>  (10) 
0.2

>  <NBS_non-phar>  (10) 
0.791672945022583

>  <NBS>  (10) 
0.991672945022583

>  <source_stage>  (10) 
scored

>  <source_iter>  (10) 
5

>  <source_parent_mol>  (10) 
0

>  <source_scenario>  (10) 
1 0 1 0 0

>  <source_rank_in_scored_call>  (10) 
3

>  <source_current_task>  (10) 
build_to_Nd0

>  <scenario>  (10) 
1 0 1 0 0

>  <current_task>  (10) 
close_aromatic_ring

>  <rotatable_bond_torsions>  (10) 
1,0,2,7

>  <reason_to_skip>  (10) 
subgraph mismatch

$$$$

     RDKit          3D

  9  9  0  0  0  0  0  0  0  0999 V2000
  -27.9544   -7.5786  -31.0885 C   0  0  0  0  0  0  0  0  0  0  0  0
  -27.6252   -6.6792  -32.0546 N   0  0  0  0  0  0  0  0  0  0  0  0
  -27.6840   -8.8650  -31.2620 N   0  0  0  0  0  0  0  0  0  0  0  0
  -27.7723   -5.3521  -31.8910 C   0  0  0  0  0  0  0  0  0  0  0  0
  -28.2774   -4.8775  -30.6967 C   0  0  0  0  0  0  0  0  0  0  0  0
  -28.6304   -5.7525  -29.6749 C   0  0  0  0  0  0  0  0  0  0  0  0
  -28.4669   -7.1072  -29.8753 C   0  0  0  0  0  0  0  0  0  0  0  0
  -28.4577   -9.7167  -32.1581 C   0  0  0  0  0  0  0  0  0  0  0  0
  -29.5733   -9.0523  -32.8454 C   0  0  0  0  0  0  0  0  0  0  0  0
  1  2  2  0
  1  3  1  0
  2  4  1  0
  4  5  2  0
  5  6  1  0
  6  7  2  0
  1  7  1  0
  3  8  1  0
  8  9  1  0
M  END
>  <name>  (11) 
Car Nac Nd0 Car Car Car Car Car Car

>  <indices>  (11) 
[0, 1, 2]

>  <tasks>  (11) 
probe_placing close_aromatic_ring close_aromatic_ring close_aromatic_ring close_aromatic_ring ring_built build_to_Nd0

>  <prot_clashes>  (11) 
1

>  <NBS phar>  (11) 
0.2

>  <NBS_non-phar>  (11) 
0.791672945022583

>  <NBS>  (11) 
0.991672945022583

>  <source_stage>  (11) 
scored

>  <source_iter>  (11) 
5

>  <source_parent_mol>  (11) 
0

>  <source_scenario>  (11) 
1 0 1 0 0

>  <source_rank_in_scored_call>  (11) 
3

>  <source_current_task>  (11) 
build_to_Nd0

>  <scenario>  (11) 
1 0 1 0 0

>  <current_task>  (11) 
close_aromatic_ring

>  <rotatable_bond_torsions>  (11) 
1,0,2,7

>  <reason_to_skip>  (11) 
subgraph mismatch

$$$$

     RDKit          3D

  9  9  0  0  0  0  0  0  0  0999 V2000
  -27.9544   -7.5786  -31.0885 C   0  0  0  0  0  0  0  0  0  0  0  0
  -27.6252   -6.6792  -32.0546 N   0  0  0  0  0  0  0  0  0  0  0  0
  -27.6840   -8.8650  -31.2620 N   0  0  0  0  0  0  0  0  0  0  0  0
  -27.7723   -5.3521  -31.8910 C   0  0  0  0  0  0  0  0  0  0  0  0
  -28.2774   -4.8775  -30.6967 C   0  0  0  0  0  0  0  0  0  0  0  0
  -28.6304   -5.7525  -29.6749 C   0  0  0  0  0  0  0  0  0  0  0  0
  -28.4669   -7.1072  -29.8753 C   0  0  0  0  0  0  0  0  0  0  0  0
  -28.4577   -9.7167  -32.1581 C   0  0  0  0  0  0  0  0  0  0  0  0
  -27.7812  -10.8828  -32.5875 C   0  0  0  0  0  0  0  0  0  0  0  0
  1  2  2  0
  1  3  1  0
  2  4  1  0
  4  5  2  0
  5  6  1  0
  6  7  2  0
  1  7  1  0
  3  8  1  0
  8  9  1  0
M  END
>  <name>  (12) 
Car Nac Nd0 Car Car Car Car Car Car

>  <indices>  (12) 
[0, 1, 2]

>  <tasks>  (12) 
probe_placing close_aromatic_ring close_aromatic_ring close_aromatic_ring close_aromatic_ring ring_built build_to_Nd0

>  <prot_clashes>  (12) 
1

>  <NBS phar>  (12) 
0.2

>  <NBS_non-phar>  (12) 
0.791672945022583

>  <NBS>  (12) 
0.991672945022583

>  <source_stage>  (12) 
scored

>  <source_iter>  (12) 
5

>  <source_parent_mol>  (12) 
0

>  <source_scenario>  (12) 
1 0 1 0 0

>  <source_rank_in_scored_call>  (12) 
3

>  <source_current_task>  (12) 
build_to_Nd0

>  <scenario>  (12) 
1 0 1 0 0

>  <current_task>  (12) 
close_aromatic_ring

>  <rotatable_bond_torsions>  (12) 
1,0,2,7

>  <reason_to_skip>  (12) 
subgraph mismatch

$$$$

     RDKit          3D

  9  9  0  0  0  0  0  0  0  0999 V2000
  -27.9544   -7.5786  -31.0885 C   0  0  0  0  0  0  0  0  0  0  0  0
  -27.6252   -6.6792  -32.0546 N   0  0  0  0  0  0  0  0  0  0  0  0
  -27.6840   -8.8650  -31.2620 N   0  0  0  0  0  0  0  0  0  0  0  0
  -27.7723   -5.3521  -31.8910 C   0  0  0  0  0  0  0  0  0  0  0  0
  -28.2774   -4.8775  -30.6967 C   0  0  0  0  0  0  0  0  0  0  0  0
  -28.6304   -5.7525  -29.6749 C   0  0  0  0  0  0  0  0  0  0  0  0
  -28.4669   -7.1072  -29.8753 C   0  0  0  0  0  0  0  0  0  0  0  0
  -28.4577   -9.7167  -32.1581 C   0  0  0  0  0  0  0  0  0  0  0  0
  -29.2190  -10.6643  -31.5704 C   0  0  0  0  0  0  0  0  0  0  0  0
  1  2  2  0
  1  3  1  0
  2  4  1  0
  4  5  2  0
  5  6  1  0
  6  7  2  0
  1  7  1  0
  3  8  1  0
  8  9  1  0
M  END
>  <name>  (13) 
Car Nac Nd0 Car Car Car Car Car Car

>  <indices>  (13) 
[0, 1, 2]

>  <tasks>  (13) 
probe_placing close_aromatic_ring close_aromatic_ring close_aromatic_ring close_aromatic_ring ring_built build_to_Nd0

>  <prot_clashes>  (13) 
1

>  <NBS phar>  (13) 
0.2

>  <NBS_non-phar>  (13) 
0.791672945022583

>  <NBS>  (13) 
0.991672945022583

>  <source_stage>  (13) 
scored

>  <source_iter>  (13) 
5

>  <source_parent_mol>  (13) 
0

>  <source_scenario>  (13) 
1 0 1 0 0

>  <source_rank_in_scored_call>  (13) 
3

>  <source_current_task>  (13) 
build_to_Nd0

>  <scenario>  (13) 
1 0 1 0 0

>  <current_task>  (13) 
close_aromatic_ring

>  <rotatable_bond_torsions>  (13) 
1,0,2,7

>  <reason_to_skip>  (13) 
subgraph mismatch

$$$$

     RDKit          3D

  9  9  0  0  0  0  0  0  0  0999 V2000
  -27.9544   -7.5786  -31.0885 C   0  0  0  0  0  0  0  0  0  0  0  0
  -27.6252   -6.6792  -32.0546 N   0  0  0  0  0  0  0  0  0  0  0  0
  -27.6840   -8.8650  -31.2620 N   0  0  0  0  0  0  0  0  0  0  0  0
  -27.7723   -5.3521  -31.8910 C   0  0  0  0  0  0  0  0  0  0  0  0
  -28.2774   -4.8775  -30.6967 C   0  0  0  0  0  0  0  0  0  0  0  0
  -28.6304   -5.7525  -29.6749 C   0  0  0  0  0  0  0  0  0  0  0  0
  -28.4669   -7.1072  -29.8753 C   0  0  0  0  0  0  0  0  0  0  0  0
  -28.4577   -9.7167  -32.1581 C   0  0  0  0  0  0  0  0  0  0  0  0
  -28.2949  -11.0002  -32.1556 N   0  0  0  0  0  0  0  0  0  0  0  0
  1  2  2  0
  1  3  1  0
  2  4  1  0
  4  5  2  0
  5  6  1  0
  6  7  2  0
  1  7  1  0
  3  8  1  0
  8  9  1  0
M  END
>  <name>  (14) 
Car Nac Nd0 Car Car Car Car Car Nd0

>  <indices>  (14) 
[0, 1, 2]

>  <tasks>  (14) 
probe_placing close_aromatic_ring close_aromatic_ring close_aromatic_ring close_aromatic_ring ring_built build_to_Nd0

>  <prot_clashes>  (14) 
1

>  <NBS phar>  (14) 
0.2

>  <NBS_non-phar>  (14) 
0.791672945022583

>  <NBS>  (14) 
0.991672945022583

>  <source_stage>  (14) 
scored

>  <source_iter>  (14) 
5

>  <source_parent_mol>  (14) 
0

>  <source_scenario>  (14) 
1 0 1 0 0

>  <source_rank_in_scored_call>  (14) 
3

>  <source_current_task>  (14) 
build_to_Nd0

>  <scenario>  (14) 
1 0 1 0 0

>  <current_task>  (14) 
close_aromatic_ring

>  <rotatable_bond_torsions>  (14) 
1,0,2,7

>  <reason_to_skip>  (14) 
subgraph mismatch

$$$$

     RDKit          3D

  9  9  0  0  0  0  0  0  0  0999 V2000
  -27.9544   -7.5786  -31.0885 C   0  0  0  0  0  0  0  0  0  0  0  0
  -27.6252   -6.6792  -32.0546 N   0  0  0  0  0  0  0  0  0  0  0  0
  -27.6840   -8.8650  -31.2620 N   0  0  0  0  0  0  0  0  0  0  0  0
  -27.7723   -5.3521  -31.8910 C   0  0  0  0  0  0  0  0  0  0  0  0
  -28.2774   -4.8775  -30.6967 C   0  0  0  0  0  0  0  0  0  0  0  0
  -28.6304   -5.7525  -29.6749 C   0  0  0  0  0  0  0  0  0  0  0  0
  -28.4669   -7.1072  -29.8753 C   0  0  0  0  0  0  0  0  0  0  0  0
  -28.4577   -9.7167  -32.1581 C   0  0  0  0  0  0  0  0  0  0  0  0
  -29.4350   -9.0326  -32.7663 N   0  0  0  0  0  0  0  0  0  0  0  0
  1  2  2  0
  1  3  1  0
  2  4  1  0
  4  5  2  0
  5  6  1  0
  6  7  2  0
  1  7  1  0
  3  8  1  0
  8  9  1  0
M  END
>  <name>  (15) 
Car Nac Nd0 Car Car Car Car Car Nd0

>  <indices>  (15) 
[0, 1, 2]

>  <tasks>  (15) 
probe_placing close_aromatic_ring close_aromatic_ring close_aromatic_ring close_aromatic_ring ring_built build_to_Nd0

>  <prot_clashes>  (15) 
1

>  <NBS phar>  (15) 
0.2

>  <NBS_non-phar>  (15) 
0.791672945022583

>  <NBS>  (15) 
0.991672945022583

>  <source_stage>  (15) 
scored

>  <source_iter>  (15) 
5

>  <source_parent_mol>  (15) 
0

>  <source_scenario>  (15) 
1 0 1 0 0

>  <source_rank_in_scored_call>  (15) 
3

>  <source_current_task>  (15) 
build_to_Nd0

>  <scenario>  (15) 
1 0 1 0 0

>  <current_task>  (15) 
close_aromatic_ring

>  <rotatable_bond_torsions>  (15) 
1,0,2,7

>  <reason_to_skip>  (15) 
subgraph mismatch

$$$$

     RDKit          3D

  9  9  0  0  0  0  0  0  0  0999 V2000
  -27.9544   -7.5786  -31.0885 C   0  0  0  0  0  0  0  0  0  0  0  0
  -27.6252   -6.6792  -32.0546 N   0  0  0  0  0  0  0  0  0  0  0  0
  -27.6840   -8.8650  -31.2620 N   0  0  0  0  0  0  0  0  0  0  0  0
  -27.7723   -5.3521  -31.8910 C   0  0  0  0  0  0  0  0  0  0  0  0
  -28.2774   -4.8775  -30.6967 C   0  0  0  0  0  0  0  0  0  0  0  0
  -28.6304   -5.7525  -29.6749 C   0  0  0  0  0  0  0  0  0  0  0  0
  -28.4669   -7.1072  -29.8753 C   0  0  0  0  0  0  0  0  0  0  0  0
  -28.4577   -9.7167  -32.1581 C   0  0  0  0  0  0  0  0  0  0  0  0
  -28.2186  -10.9891  -32.2292 N   0  0  0  0  0  0  0  0  0  0  0  0
  1  2  2  0
  1  3  1  0
  2  4  1  0
  4  5  2  0
  5  6  1  0
  6  7  2  0
  1  7  1  0
  3  8  1  0
  8  9  2  0
M  END
>  <name>  (16) 
Car Nac Nd0 Car Car Car Car Car Nac

>  <indices>  (16) 
[0, 1, 2]

>  <tasks>  (16) 
probe_placing close_aromatic_ring close_aromatic_ring close_aromatic_ring close_aromatic_ring ring_built build_to_Nd0

>  <prot_clashes>  (16) 
1

>  <NBS phar>  (16) 
0.2

>  <NBS_non-phar>  (16) 
0.791672945022583

>  <NBS>  (16) 
0.991672945022583

>  <source_stage>  (16) 
scored

>  <source_iter>  (16) 
5

>  <source_parent_mol>  (16) 
0

>  <source_scenario>  (16) 
1 0 1 0 0

>  <source_rank_in_scored_call>  (16) 
3

>  <source_current_task>  (16) 
build_to_Nd0

>  <scenario>  (16) 
1 0 1 0 0

>  <current_task>  (16) 
close_aromatic_ring

>  <rotatable_bond_torsions>  (16) 
1,0,2,7

>  <reason_to_skip>  (16) 
subgraph mismatch

$$$$

     RDKit          3D

  9  9  0  0  0  0  0  0  0  0999 V2000
  -27.9544   -7.5786  -31.0885 C   0  0  0  0  0  0  0  0  0  0  0  0
  -27.6252   -6.6792  -32.0546 N   0  0  0  0  0  0  0  0  0  0  0  0
  -27.6840   -8.8650  -31.2620 N   0  0  0  0  0  0  0  0  0  0  0  0
  -27.7723   -5.3521  -31.8910 C   0  0  0  0  0  0  0  0  0  0  0  0
  -28.2774   -4.8775  -30.6967 C   0  0  0  0  0  0  0  0  0  0  0  0
  -28.6304   -5.7525  -29.6749 C   0  0  0  0  0  0  0  0  0  0  0  0
  -28.4669   -7.1072  -29.8753 C   0  0  0  0  0  0  0  0  0  0  0  0
  -28.4577   -9.7167  -32.1581 C   0  0  0  0  0  0  0  0  0  0  0  0
  -29.7479   -9.5902  -32.2997 N   0  0  0  0  0  0  0  0  0  0  0  0
  1  2  2  0
  1  3  1  0
  2  4  1  0
  4  5  2  0
  5  6  1  0
  6  7  2  0
  1  7  1  0
  3  8  1  0
  8  9  2  0
M  END
>  <name>  (17) 
Car Nac Nd0 Car Car Car Car Car Nac

>  <indices>  (17) 
[0, 1, 2]

>  <tasks>  (17) 
probe_placing close_aromatic_ring close_aromatic_ring close_aromatic_ring close_aromatic_ring ring_built build_to_Nd0

>  <prot_clashes>  (17) 
1

>  <NBS phar>  (17) 
0.2

>  <NBS_non-phar>  (17) 
0.791672945022583

>  <NBS>  (17) 
0.991672945022583

>  <source_stage>  (17) 
scored

>  <source_iter>  (17) 
5

>  <source_parent_mol>  (17) 
0

>  <source_scenario>  (17) 
1 0 1 0 0

>  <source_rank_in_scored_call>  (17) 
3

>  <source_current_task>  (17) 
build_to_Nd0

>  <scenario>  (17) 
1 0 1 0 0

>  <current_task>  (17) 
close_aromatic_ring

>  <rotatable_bond_torsions>  (17) 
1,0,2,7

>  <reason_to_skip>  (17) 
subgraph mismatch

$$$$

     RDKit          3D

  9  9  0  0  0  0  0  0  0  0999 V2000
  -27.9544   -7.5786  -31.0885 C   0  0  0  0  0  0  0  0  0  0  0  0
  -27.6252   -6.6792  -32.0546 N   0  0  0  0  0  0  0  0  0  0  0  0
  -27.6840   -8.8650  -31.2620 N   0  0  0  0  0  0  0  0  0  0  0  0
  -27.7723   -5.3521  -31.8910 C   0  0  0  0  0  0  0  0  0  0  0  0
  -28.2774   -4.8775  -30.6967 C   0  0  0  0  0  0  0  0  0  0  0  0
  -28.6304   -5.7525  -29.6749 C   0  0  0  0  0  0  0  0  0  0  0  0
  -28.4669   -7.1072  -29.8753 C   0  0  0  0  0  0  0  0  0  0  0  0
  -28.4577   -9.7167  -32.1581 C   0  0  0  0  0  0  0  0  0  0  0  0
  -28.0156  -10.0410  -33.3258 N   0  0  0  0  0  0  0  0  0  0  0  0
  1  2  2  0
  1  3  1  0
  2  4  1  0
  4  5  2  0
  5  6  1  0
  6  7  2  0
  1  7  1  0
  3  8  1  0
  8  9  2  0
M  END
>  <name>  (18) 
Car Nac Nd0 Car Car Car Car Car Nac

>  <indices>  (18) 
[0, 1, 2]

>  <tasks>  (18) 
probe_placing close_aromatic_ring close_aromatic_ring close_aromatic_ring close_aromatic_ring ring_built build_to_Nd0

>  <prot_clashes>  (18) 
1

>  <NBS phar>  (18) 
0.2

>  <NBS_non-phar>  (18) 
0.791672945022583

>  <NBS>  (18) 
0.991672945022583

>  <source_stage>  (18) 
scored

>  <source_iter>  (18) 
5

>  <source_parent_mol>  (18) 
0

>  <source_scenario>  (18) 
1 0 1 0 0

>  <source_rank_in_scored_call>  (18) 
3

>  <source_current_task>  (18) 
build_to_Nd0

>  <scenario>  (18) 
1 0 1 0 0

>  <current_task>  (18) 
close_aromatic_ring

>  <rotatable_bond_torsions>  (18) 
1,0,2,7

>  <reason_to_skip>  (18) 
subgraph mismatch

$$$$

     RDKit          3D

  9  9  0  0  0  0  0  0  0  0999 V2000
  -27.9544   -7.5786  -31.0885 C   0  0  0  0  0  0  0  0  0  0  0  0
  -27.6252   -6.6792  -32.0546 N   0  0  0  0  0  0  0  0  0  0  0  0
  -27.6840   -8.8650  -31.2620 N   0  0  0  0  0  0  0  0  0  0  0  0
  -27.7723   -5.3521  -31.8910 C   0  0  0  0  0  0  0  0  0  0  0  0
  -28.2774   -4.8775  -30.6967 C   0  0  0  0  0  0  0  0  0  0  0  0
  -28.6304   -5.7525  -29.6749 C   0  0  0  0  0  0  0  0  0  0  0  0
  -28.4669   -7.1072  -29.8753 C   0  0  0  0  0  0  0  0  0  0  0  0
  -28.4577   -9.7167  -32.1581 C   0  0  0  0  0  0  0  0  0  0  0  0
  -29.5459   -9.2058  -32.6826 N   0  0  0  0  0  0  0  0  0  0  0  0
  1  2  2  0
  1  3  1  0
  2  4  1  0
  4  5  2  0
  5  6  1  0
  6  7  2  0
  1  7  1  0
  3  8  1  0
  8  9  1  0
M  END
>  <name>  (19) 
Car Nac Nd0 Car Car Car Car Car Nac

>  <indices>  (19) 
[0, 1, 2]

>  <tasks>  (19) 
probe_placing close_aromatic_ring close_aromatic_ring close_aromatic_ring close_aromatic_ring ring_built build_to_Nd0

>  <prot_clashes>  (19) 
1

>  <NBS phar>  (19) 
0.2

>  <NBS_non-phar>  (19) 
0.791672945022583

>  <NBS>  (19) 
0.991672945022583

>  <source_stage>  (19) 
scored

>  <source_iter>  (19) 
5

>  <source_parent_mol>  (19) 
0

>  <source_scenario>  (19) 
1 0 1 0 0

>  <source_rank_in_scored_call>  (19) 
3

>  <source_current_task>  (19) 
build_to_Nd0

>  <scenario>  (19) 
1 0 1 0 0

>  <current_task>  (19) 
close_aromatic_ring

>  <rotatable_bond_torsions>  (19) 
1,0,2,7

>  <reason_to_skip>  (19) 
subgraph mismatch

$$$$

     RDKit          3D

  9  9  0  0  0  0  0  0  0  0999 V2000
  -27.9544   -7.5786  -31.0885 C   0  0  0  0  0  0  0  0  0  0  0  0
  -27.6252   -6.6792  -32.0546 N   0  0  0  0  0  0  0  0  0  0  0  0
  -27.6840   -8.8650  -31.2620 N   0  0  0  0  0  0  0  0  0  0  0  0
  -27.7723   -5.3521  -31.8910 C   0  0  0  0  0  0  0  0  0  0  0  0
  -28.2774   -4.8775  -30.6967 C   0  0  0  0  0  0  0  0  0  0  0  0
  -28.6304   -5.7525  -29.6749 C   0  0  0  0  0  0  0  0  0  0  0  0
  -28.4669   -7.1072  -29.8753 C   0  0  0  0  0  0  0  0  0  0  0  0
  -28.4577   -9.7167  -32.1581 C   0  0  0  0  0  0  0  0  0  0  0  0
  -29.1797  -10.6278  -31.5952 N   0  0  0  0  0  0  0  0  0  0  0  0
  1  2  2  0
  1  3  1  0
  2  4  1  0
  4  5  2  0
  5  6  1  0
  6  7  2  0
  1  7  1  0
  3  8  1  0
  8  9  1  0
M  END
>  <name>  (20) 
Car Nac Nd0 Car Car Car Car Car Nac

>  <indices>  (20) 
[0, 1, 2]

>  <tasks>  (20) 
probe_placing close_aromatic_ring close_aromatic_ring close_aromatic_ring close_aromatic_ring ring_built build_to_Nd0

>  <prot_clashes>  (20) 
1

>  <NBS phar>  (20) 
0.2

>  <NBS_non-phar>  (20) 
0.791672945022583

>  <NBS>  (20) 
0.991672945022583

>  <source_stage>  (20) 
scored

>  <source_iter>  (20) 
5

>  <source_parent_mol>  (20) 
0

>  <source_scenario>  (20) 
1 0 1 0 0

>  <source_rank_in_scored_call>  (20) 
3

>  <source_current_task>  (20) 
build_to_Nd0

>  <scenario>  (20) 
1 0 1 0 0

>  <current_task>  (20) 
close_aromatic_ring

>  <rotatable_bond_torsions>  (20) 
1,0,2,7

>  <reason_to_skip>  (20) 
subgraph mismatch

$$$$

     RDKit          3D

  9  9  0  0  0  0  0  0  0  0999 V2000
  -27.9544   -7.5786  -31.0885 C   0  0  0  0  0  0  0  0  0  0  0  0
  -27.6252   -6.6792  -32.0546 N   0  0  0  0  0  0  0  0  0  0  0  0
  -27.6840   -8.8650  -31.2620 N   0  0  0  0  0  0  0  0  0  0  0  0
  -27.7723   -5.3521  -31.8910 C   0  0  0  0  0  0  0  0  0  0  0  0
  -28.2774   -4.8775  -30.6967 C   0  0  0  0  0  0  0  0  0  0  0  0
  -28.6304   -5.7525  -29.6749 C   0  0  0  0  0  0  0  0  0  0  0  0
  -28.4669   -7.1072  -29.8753 C   0  0  0  0  0  0  0  0  0  0  0  0
  -28.4577   -9.7167  -32.1581 C   0  0  0  0  0  0  0  0  0  0  0  0
  -28.2831   -9.7628  -33.5242 N   0  0  0  0  0  0  0  0  0  0  0  0
  1  2  2  0
  1  3  1  0
  2  4  1  0
  4  5  2  0
  5  6  1  0
  6  7  2  0
  1  7  1  0
  3  8  1  0
  8  9  1  0
M  END
>  <name>  (21) 
Car Nac Nd0 Car Car Car Car Car Nac

>  <indices>  (21) 
[0, 1, 2]

>  <tasks>  (21) 
probe_placing close_aromatic_ring close_aromatic_ring close_aromatic_ring close_aromatic_ring ring_built build_to_Nd0

>  <prot_clashes>  (21) 
1

>  <NBS phar>  (21) 
0.2

>  <NBS_non-phar>  (21) 
0.791672945022583

>  <NBS>  (21) 
0.991672945022583

>  <source_stage>  (21) 
scored

>  <source_iter>  (21) 
5

>  <source_parent_mol>  (21) 
0

>  <source_scenario>  (21) 
1 0 1 0 0

>  <source_rank_in_scored_call>  (21) 
3

>  <source_current_task>  (21) 
build_to_Nd0

>  <scenario>  (21) 
1 0 1 0 0

>  <current_task>  (21) 
close_aromatic_ring

>  <rotatable_bond_torsions>  (21) 
1,0,2,7

>  <reason_to_skip>  (21) 
subgraph mismatch

$$$$

     RDKit          3D

  9  9  0  0  0  0  0  0  0  0999 V2000
  -27.9544   -7.5786  -31.0885 C   0  0  0  0  0  0  0  0  0  0  0  0
  -27.6252   -6.6792  -32.0546 N   0  0  0  0  0  0  0  0  0  0  0  0
  -27.6840   -8.8650  -31.2620 N   0  0  0  0  0  0  0  0  0  0  0  0
  -27.7723   -5.3521  -31.8910 C   0  0  0  0  0  0  0  0  0  0  0  0
  -28.2774   -4.8775  -30.6967 C   0  0  0  0  0  0  0  0  0  0  0  0
  -28.6304   -5.7525  -29.6749 C   0  0  0  0  0  0  0  0  0  0  0  0
  -28.4669   -7.1072  -29.8753 C   0  0  0  0  0  0  0  0  0  0  0  0
  -26.6956   -9.5358  -30.6784 C   0  0  0  0  0  0  0  0  0  0  0  0
    0.0000    0.0000    0.0000 S   0  0  0  0  0  0  0  0  0  0  0  0
  1  2  2  0
  1  3  1  0
  2  4  1  0
  4  5  2  0
  5  6  1  0
  6  7  2  0
  1  7  1  0
  3  8  1  0
  8  9  1  0
M  END
>  <name>  (1) 
Car Nac Nd0 Car Car Car Car Car Sul

>  <indices>  (1) 
[0, 1, 2]

>  <tasks>  (1) 
probe_placing close_aromatic_ring close_aromatic_ring close_aromatic_ring close_aromatic_ring ring_built build_to_Nd0

>  <prot_clashes>  (1) 
7

>  <NBS phar>  (1) 
0.2

>  <NBS_non-phar>  (1) 
0.6837513446807861

>  <NBS>  (1) 
0.8837513446807861

>  <source_stage>  (1) 
scored

>  <source_iter>  (1) 
5

>  <source_parent_mol>  (1) 
0

>  <source_scenario>  (1) 
1 0 1 0 0

>  <source_rank_in_scored_call>  (1) 
6

>  <source_current_task>  (1) 
build_to_Nd0

>  <scenario>  (1) 
1 0 1 0 0

>  <current_task>  (1) 
close_aromatic_ring

>  <rotatable_bond_torsions>  (1) 
1,0,2,7

>  <reason_to_skip>  (1) 
some_atom_counter_exceeded

$$$$

     RDKit          3D

  9  9  0  0  0  0  0  0  0  0999 V2000
  -27.9544   -7.5786  -31.0885 C   0  0  0  0  0  0  0  0  0  0  0  0
  -27.6252   -6.6792  -32.0546 N   0  0  0  0  0  0  0  0  0  0  0  0
  -27.6840   -8.8650  -31.2620 N   0  0  0  0  0  0  0  0  0  0  0  0
  -27.7723   -5.3521  -31.8910 C   0  0  0  0  0  0  0  0  0  0  0  0
  -28.2774   -4.8775  -30.6967 C   0  0  0  0  0  0  0  0  0  0  0  0
  -28.6304   -5.7525  -29.6749 C   0  0  0  0  0  0  0  0  0  0  0  0
  -28.4669   -7.1072  -29.8753 C   0  0  0  0  0  0  0  0  0  0  0  0
  -26.6956   -9.5358  -30.6784 C   0  0  0  0  0  0  0  0  0  0  0  0
  -26.2400  -10.6918  -30.6495 N   0  0  0  0  0  0  0  0  0  0  0  0
  1  2  2  0
  1  3  1  0
  2  4  1  0
  4  5  2  0
  5  6  1  0
  6  7  2  0
  1  7  1  0
  3  8  1  0
  8  9  1  0
M  END
>  <name>  (2) 
Car Nac Nd0 Car Car Car Car Car Nac

>  <indices>  (2) 
[0, 1, 2]

>  <tasks>  (2) 
probe_placing close_aromatic_ring close_aromatic_ring close_aromatic_ring close_aromatic_ring ring_built build_to_Nd0

>  <prot_clashes>  (2) 
7

>  <NBS phar>  (2) 
0.2

>  <NBS_non-phar>  (2) 
0.6837513446807861

>  <NBS>  (2) 
0.8837513446807861

>  <source_stage>  (2) 
scored

>  <source_iter>  (2) 
5

>  <source_parent_mol>  (2) 
0

>  <source_scenario>  (2) 
1 0 1 0 0

>  <source_rank_in_scored_call>  (2) 
6

>  <source_current_task>  (2) 
build_to_Nd0

>  <scenario>  (2) 
1 0 1 0 0

>  <current_task>  (2) 
close_aromatic_ring

>  <rotatable_bond_torsions>  (2) 
1,0,2,7

>  <reason_to_skip>  (2) 
bad angles

$$$$

     RDKit          3D

  9  9  0  0  0  0  0  0  0  0999 V2000
  -27.9544   -7.5786  -31.0885 C   0  0  0  0  0  0  0  0  0  0  0  0
  -27.6252   -6.6792  -32.0546 N   0  0  0  0  0  0  0  0  0  0  0  0
  -27.6840   -8.8650  -31.2620 N   0  0  0  0  0  0  0  0  0  0  0  0
  -27.7723   -5.3521  -31.8910 C   0  0  0  0  0  0  0  0  0  0  0  0
  -28.2774   -4.8775  -30.6967 C   0  0  0  0  0  0  0  0  0  0  0  0
  -28.6304   -5.7525  -29.6749 C   0  0  0  0  0  0  0  0  0  0  0  0
  -28.4669   -7.1072  -29.8753 C   0  0  0  0  0  0  0  0  0  0  0  0
  -26.6956   -9.5358  -30.6784 C   0  0  0  0  0  0  0  0  0  0  0  0
    0.0000    0.0000    0.0000 S   0  0  0  0  0  0  0  0  0  0  0  0
  1  2  2  0
  1  3  1  0
  2  4  1  0
  4  5  2  0
  5  6  1  0
  6  7  2  0
  1  7  1  0
  3  8  1  0
  8  9  1  0
M  END
>  <name>  (3) 
Car Nac Nd0 Car Car Car Car Car Sul

>  <indices>  (3) 
[0, 1, 2]

>  <tasks>  (3) 
probe_placing close_aromatic_ring close_aromatic_ring close_aromatic_ring close_aromatic_ring ring_built build_to_Nd0

>  <prot_clashes>  (3) 
7

>  <NBS phar>  (3) 
0.2

>  <NBS_non-phar>  (3) 
0.6837513446807861

>  <NBS>  (3) 
0.8837513446807861

>  <source_stage>  (3) 
scored

>  <source_iter>  (3) 
5

>  <source_parent_mol>  (3) 
0

>  <source_scenario>  (3) 
1 0 1 0 0

>  <source_rank_in_scored_call>  (3) 
6

>  <source_current_task>  (3) 
build_to_Nd0

>  <scenario>  (3) 
1 0 1 0 0

>  <current_task>  (3) 
close_aromatic_ring

>  <rotatable_bond_torsions>  (3) 
1,0,2,7

>  <reason_to_skip>  (3) 
some_atom_counter_exceeded

$$$$

     RDKit          3D

  9  9  0  0  0  0  0  0  0  0999 V2000
  -27.9544   -7.5786  -31.0885 C   0  0  0  0  0  0  0  0  0  0  0  0
  -27.6252   -6.6792  -32.0546 N   0  0  0  0  0  0  0  0  0  0  0  0
  -27.6840   -8.8650  -31.2620 N   0  0  0  0  0  0  0  0  0  0  0  0
  -27.7723   -5.3521  -31.8910 C   0  0  0  0  0  0  0  0  0  0  0  0
  -28.2774   -4.8775  -30.6967 C   0  0  0  0  0  0  0  0  0  0  0  0
  -28.6304   -5.7525  -29.6749 C   0  0  0  0  0  0  0  0  0  0  0  0
  -28.4669   -7.1072  -29.8753 C   0  0  0  0  0  0  0  0  0  0  0  0
  -26.6956   -9.5358  -30.6784 C   0  0  0  0  0  0  0  0  0  0  0  0
    0.0000    0.0000    0.0000 O   0  0  0  0  0  0  0  0  0  0  0  0
  1  2  2  0
  1  3  1  0
  2  4  1  0
  4  5  2  0
  5  6  1  0
  6  7  2  0
  1  7  1  0
  3  8  1  0
  8  9  1  0
M  END
>  <name>  (4) 
Car Nac Nd0 Car Car Car Car Car O_a

>  <indices>  (4) 
[0, 1, 2]

>  <tasks>  (4) 
probe_placing close_aromatic_ring close_aromatic_ring close_aromatic_ring close_aromatic_ring ring_built build_to_Nd0

>  <prot_clashes>  (4) 
7

>  <NBS phar>  (4) 
0.2

>  <NBS_non-phar>  (4) 
0.6837513446807861

>  <NBS>  (4) 
0.8837513446807861

>  <source_stage>  (4) 
scored

>  <source_iter>  (4) 
5

>  <source_parent_mol>  (4) 
0

>  <source_scenario>  (4) 
1 0 1 0 0

>  <source_rank_in_scored_call>  (4) 
6

>  <source_current_task>  (4) 
build_to_Nd0

>  <scenario>  (4) 
1 0 1 0 0

>  <current_task>  (4) 
close_aromatic_ring

>  <rotatable_bond_torsions>  (4) 
1,0,2,7

>  <reason_to_skip>  (4) 
some_atom_counter_exceeded

$$$$

     RDKit          3D

  9  9  0  0  0  0  0  0  0  0999 V2000
  -27.9544   -7.5786  -31.0885 C   0  0  0  0  0  0  0  0  0  0  0  0
  -27.6252   -6.6792  -32.0546 N   0  0  0  0  0  0  0  0  0  0  0  0
  -27.6840   -8.8650  -31.2620 N   0  0  0  0  0  0  0  0  0  0  0  0
  -27.7723   -5.3521  -31.8910 C   0  0  0  0  0  0  0  0  0  0  0  0
  -28.2774   -4.8775  -30.6967 C   0  0  0  0  0  0  0  0  0  0  0  0
  -28.6304   -5.7525  -29.6749 C   0  0  0  0  0  0  0  0  0  0  0  0
  -28.4669   -7.1072  -29.8753 C   0  0  0  0  0  0  0  0  0  0  0  0
  -26.6956   -9.5358  -30.6784 C   0  0  0  0  0  0  0  0  0  0  0  0
    0.0000    0.0000    0.0000 S   0  0  0  0  0  0  0  0  0  0  0  0
  1  2  2  0
  1  3  1  0
  2  4  1  0
  4  5  2  0
  5  6  1  0
  6  7  2  0
  1  7  1  0
  3  8  1  0
  8  9  1  0
M  END
>  <name>  (5) 
Car Nac Nd0 Car Car Car Car Car Sul

>  <indices>  (5) 
[0, 1, 2]

>  <tasks>  (5) 
probe_placing close_aromatic_ring close_aromatic_ring close_aromatic_ring close_aromatic_ring ring_built build_to_Nd0

>  <prot_clashes>  (5) 
7

>  <NBS phar>  (5) 
0.2

>  <NBS_non-phar>  (5) 
0.6837513446807861

>  <NBS>  (5) 
0.8837513446807861

>  <source_stage>  (5) 
scored

>  <source_iter>  (5) 
5

>  <source_parent_mol>  (5) 
0

>  <source_scenario>  (5) 
1 0 1 0 0

>  <source_rank_in_scored_call>  (5) 
6

>  <source_current_task>  (5) 
build_to_Nd0

>  <scenario>  (5) 
1 0 1 0 0

>  <current_task>  (5) 
close_aromatic_ring

>  <rotatable_bond_torsions>  (5) 
1,0,2,7

>  <reason_to_skip>  (5) 
some_atom_counter_exceeded

$$$$

     RDKit          3D

  9  9  0  0  0  0  0  0  0  0999 V2000
  -27.9544   -7.5786  -31.0885 C   0  0  0  0  0  0  0  0  0  0  0  0
  -27.6252   -6.6792  -32.0546 N   0  0  0  0  0  0  0  0  0  0  0  0
  -27.6840   -8.8650  -31.2620 N   0  0  0  0  0  0  0  0  0  0  0  0
  -27.7723   -5.3521  -31.8910 C   0  0  0  0  0  0  0  0  0  0  0  0
  -28.2774   -4.8775  -30.6967 C   0  0  0  0  0  0  0  0  0  0  0  0
  -28.6304   -5.7525  -29.6749 C   0  0  0  0  0  0  0  0  0  0  0  0
  -28.4669   -7.1072  -29.8753 C   0  0  0  0  0  0  0  0  0  0  0  0
  -26.6956   -9.5358  -30.6784 C   0  0  0  0  0  0  0  0  0  0  0  0
  -25.8170   -8.8718  -29.7915 C   0  0  0  0  0  0  0  0  0  0  0  0
  1  2  2  0
  1  3  1  0
  2  4  1  0
  4  5  2  0
  5  6  1  0
  6  7  2  0
  1  7  1  0
  3  8  1  0
  8  9  2  0
M  END
>  <name>  (6) 
Car Nac Nd0 Car Car Car Car Car Car

>  <indices>  (6) 
[0, 1, 2]

>  <tasks>  (6) 
probe_placing close_aromatic_ring close_aromatic_ring close_aromatic_ring close_aromatic_ring ring_built build_to_Nd0

>  <prot_clashes>  (6) 
7

>  <NBS phar>  (6) 
0.2

>  <NBS_non-phar>  (6) 
0.6837513446807861

>  <NBS>  (6) 
0.8837513446807861

>  <source_stage>  (6) 
scored

>  <source_iter>  (6) 
5

>  <source_parent_mol>  (6) 
0

>  <source_scenario>  (6) 
1 0 1 0 0

>  <source_rank_in_scored_call>  (6) 
6

>  <source_current_task>  (6) 
build_to_Nd0

>  <scenario>  (6) 
1 0 1 0 0

>  <current_task>  (6) 
close_aromatic_ring

>  <rotatable_bond_torsions>  (6) 
1,0,2,7

>  <reason_to_skip>  (6) 
subgraph mismatch

$$$$

     RDKit          3D

  9  9  0  0  0  0  0  0  0  0999 V2000
  -27.9544   -7.5786  -31.0885 C   0  0  0  0  0  0  0  0  0  0  0  0
  -27.6252   -6.6792  -32.0546 N   0  0  0  0  0  0  0  0  0  0  0  0
  -27.6840   -8.8650  -31.2620 N   0  0  0  0  0  0  0  0  0  0  0  0
  -27.7723   -5.3521  -31.8910 C   0  0  0  0  0  0  0  0  0  0  0  0
  -28.2774   -4.8775  -30.6967 C   0  0  0  0  0  0  0  0  0  0  0  0
  -28.6304   -5.7525  -29.6749 C   0  0  0  0  0  0  0  0  0  0  0  0
  -28.4669   -7.1072  -29.8753 C   0  0  0  0  0  0  0  0  0  0  0  0
  -26.6956   -9.5358  -30.6784 C   0  0  0  0  0  0  0  0  0  0  0  0
  -26.5682  -10.9303  -30.7997 C   0  0  0  0  0  0  0  0  0  0  0  0
  1  2  2  0
  1  3  1  0
  2  4  1  0
  4  5  2  0
  5  6  1  0
  6  7  2  0
  1  7  1  0
  3  8  1  0
  8  9  2  0
M  END
>  <name>  (7) 
Car Nac Nd0 Car Car Car Car Car Car

>  <indices>  (7) 
[0, 1, 2]

>  <tasks>  (7) 
probe_placing close_aromatic_ring close_aromatic_ring close_aromatic_ring close_aromatic_ring ring_built build_to_Nd0

>  <prot_clashes>  (7) 
7

>  <NBS phar>  (7) 
0.2

>  <NBS_non-phar>  (7) 
0.6837513446807861

>  <NBS>  (7) 
0.8837513446807861

>  <source_stage>  (7) 
scored

>  <source_iter>  (7) 
5

>  <source_parent_mol>  (7) 
0

>  <source_scenario>  (7) 
1 0 1 0 0

>  <source_rank_in_scored_call>  (7) 
6

>  <source_current_task>  (7) 
build_to_Nd0

>  <scenario>  (7) 
1 0 1 0 0

>  <current_task>  (7) 
close_aromatic_ring

>  <rotatable_bond_torsions>  (7) 
1,0,2,7

>  <reason_to_skip>  (7) 
subgraph mismatch

$$$$

     RDKit          3D

  9  9  0  0  0  0  0  0  0  0999 V2000
  -27.9544   -7.5786  -31.0885 C   0  0  0  0  0  0  0  0  0  0  0  0
  -27.6252   -6.6792  -32.0546 N   0  0  0  0  0  0  0  0  0  0  0  0
  -27.6840   -8.8650  -31.2620 N   0  0  0  0  0  0  0  0  0  0  0  0
  -27.7723   -5.3521  -31.8910 C   0  0  0  0  0  0  0  0  0  0  0  0
  -28.2774   -4.8775  -30.6967 C   0  0  0  0  0  0  0  0  0  0  0  0
  -28.6304   -5.7525  -29.6749 C   0  0  0  0  0  0  0  0  0  0  0  0
  -28.4669   -7.1072  -29.8753 C   0  0  0  0  0  0  0  0  0  0  0  0
  -26.6956   -9.5358  -30.6784 C   0  0  0  0  0  0  0  0  0  0  0  0
  -25.6326  -10.1170  -31.4398 C   0  0  0  0  0  0  0  0  0  0  0  0
  1  2  2  0
  1  3  1  0
  2  4  1  0
  4  5  2  0
  5  6  1  0
  6  7  2  0
  1  7  1  0
  3  8  1  0
  8  9  2  0
M  END
>  <name>  (8) 
Car Nac Nd0 Car Car Car Car Car Car

>  <indices>  (8) 
[0, 1, 2]

>  <tasks>  (8) 
probe_placing close_aromatic_ring close_aromatic_ring close_aromatic_ring close_aromatic_ring ring_built build_to_Nd0

>  <prot_clashes>  (8) 
7

>  <NBS phar>  (8) 
0.2

>  <NBS_non-phar>  (8) 
0.6837513446807861

>  <NBS>  (8) 
0.8837513446807861

>  <source_stage>  (8) 
scored

>  <source_iter>  (8) 
5

>  <source_parent_mol>  (8) 
0

>  <source_scenario>  (8) 
1 0 1 0 0

>  <source_rank_in_scored_call>  (8) 
6

>  <source_current_task>  (8) 
build_to_Nd0

>  <scenario>  (8) 
1 0 1 0 0

>  <current_task>  (8) 
close_aromatic_ring

>  <rotatable_bond_torsions>  (8) 
1,0,2,7

>  <reason_to_skip>  (8) 
subgraph mismatch

$$$$

     RDKit          3D

  9  9  0  0  0  0  0  0  0  0999 V2000
  -27.9544   -7.5786  -31.0885 C   0  0  0  0  0  0  0  0  0  0  0  0
  -27.6252   -6.6792  -32.0546 N   0  0  0  0  0  0  0  0  0  0  0  0
  -27.6840   -8.8650  -31.2620 N   0  0  0  0  0  0  0  0  0  0  0  0
  -27.7723   -5.3521  -31.8910 C   0  0  0  0  0  0  0  0  0  0  0  0
  -28.2774   -4.8775  -30.6967 C   0  0  0  0  0  0  0  0  0  0  0  0
  -28.6304   -5.7525  -29.6749 C   0  0  0  0  0  0  0  0  0  0  0  0
  -28.4669   -7.1072  -29.8753 C   0  0  0  0  0  0  0  0  0  0  0  0
  -26.6956   -9.5358  -30.6784 C   0  0  0  0  0  0  0  0  0  0  0  0
  -26.8996  -10.5094  -29.6582 C   0  0  0  0  0  0  0  0  0  0  0  0
  1  2  2  0
  1  3  1  0
  2  4  1  0
  4  5  2  0
  5  6  1  0
  6  7  2  0
  1  7  1  0
  3  8  1  0
  8  9  2  0
M  END
>  <name>  (9) 
Car Nac Nd0 Car Car Car Car Car Car

>  <indices>  (9) 
[0, 1, 2]

>  <tasks>  (9) 
probe_placing close_aromatic_ring close_aromatic_ring close_aromatic_ring close_aromatic_ring ring_built build_to_Nd0

>  <prot_clashes>  (9) 
7

>  <NBS phar>  (9) 
0.2

>  <NBS_non-phar>  (9) 
0.6837513446807861

>  <NBS>  (9) 
0.8837513446807861

>  <source_stage>  (9) 
scored

>  <source_iter>  (9) 
5

>  <source_parent_mol>  (9) 
0

>  <source_scenario>  (9) 
1 0 1 0 0

>  <source_rank_in_scored_call>  (9) 
6

>  <source_current_task>  (9) 
build_to_Nd0

>  <scenario>  (9) 
1 0 1 0 0

>  <current_task>  (9) 
close_aromatic_ring

>  <rotatable_bond_torsions>  (9) 
1,0,2,7

>  <reason_to_skip>  (9) 
subgraph mismatch

$$$$

     RDKit          3D

  9  9  0  0  0  0  0  0  0  0999 V2000
  -27.9544   -7.5786  -31.0885 C   0  0  0  0  0  0  0  0  0  0  0  0
  -27.6252   -6.6792  -32.0546 N   0  0  0  0  0  0  0  0  0  0  0  0
  -27.6840   -8.8650  -31.2620 N   0  0  0  0  0  0  0  0  0  0  0  0
  -27.7723   -5.3521  -31.8910 C   0  0  0  0  0  0  0  0  0  0  0  0
  -28.2774   -4.8775  -30.6967 C   0  0  0  0  0  0  0  0  0  0  0  0
  -28.6304   -5.7525  -29.6749 C   0  0  0  0  0  0  0  0  0  0  0  0
  -28.4669   -7.1072  -29.8753 C   0  0  0  0  0  0  0  0  0  0  0  0
  -26.6956   -9.5358  -30.6784 C   0  0  0  0  0  0  0  0  0  0  0  0
  -26.0838   -8.4674  -29.8835 C   0  0  0  0  0  0  0  0  0  0  0  0
  1  2  2  0
  1  3  1  0
  2  4  1  0
  4  5  2  0
  5  6  1  0
  6  7  2  0
  1  7  1  0
  3  8  1  0
  8  9  2  0
M  END
>  <name>  (10) 
Car Nac Nd0 Car Car Car Car Car Car

>  <indices>  (10) 
[0, 1, 2]

>  <tasks>  (10) 
probe_placing close_aromatic_ring close_aromatic_ring close_aromatic_ring close_aromatic_ring ring_built build_to_Nd0

>  <prot_clashes>  (10) 
7

>  <NBS phar>  (10) 
0.2

>  <NBS_non-phar>  (10) 
0.6837513446807861

>  <NBS>  (10) 
0.8837513446807861

>  <source_stage>  (10) 
scored

>  <source_iter>  (10) 
5

>  <source_parent_mol>  (10) 
0

>  <source_scenario>  (10) 
1 0 1 0 0

>  <source_rank_in_scored_call>  (10) 
6

>  <source_current_task>  (10) 
build_to_Nd0

>  <scenario>  (10) 
1 0 1 0 0

>  <current_task>  (10) 
close_aromatic_ring

>  <rotatable_bond_torsions>  (10) 
1,0,2,7

>  <reason_to_skip>  (10) 
subgraph mismatch

$$$$

     RDKit          3D

  9  9  0  0  0  0  0  0  0  0999 V2000
  -27.9544   -7.5786  -31.0885 C   0  0  0  0  0  0  0  0  0  0  0  0
  -27.6252   -6.6792  -32.0546 N   0  0  0  0  0  0  0  0  0  0  0  0
  -27.6840   -8.8650  -31.2620 N   0  0  0  0  0  0  0  0  0  0  0  0
  -27.7723   -5.3521  -31.8910 C   0  0  0  0  0  0  0  0  0  0  0  0
  -28.2774   -4.8775  -30.6967 C   0  0  0  0  0  0  0  0  0  0  0  0
  -28.6304   -5.7525  -29.6749 C   0  0  0  0  0  0  0  0  0  0  0  0
  -28.4669   -7.1072  -29.8753 C   0  0  0  0  0  0  0  0  0  0  0  0
  -26.6956   -9.5358  -30.6784 C   0  0  0  0  0  0  0  0  0  0  0  0
  -25.8000   -8.7629  -29.7555 C   0  0  0  0  0  0  0  0  0  0  0  0
  1  2  2  0
  1  3  1  0
  2  4  1  0
  4  5  2  0
  5  6  1  0
  6  7  2  0
  1  7  1  0
  3  8  1  0
  8  9  1  0
M  END
>  <name>  (11) 
Car Nac Nd0 Car Car Car Car Car Car

>  <indices>  (11) 
[0, 1, 2]

>  <tasks>  (11) 
probe_placing close_aromatic_ring close_aromatic_ring close_aromatic_ring close_aromatic_ring ring_built build_to_Nd0

>  <prot_clashes>  (11) 
7

>  <NBS phar>  (11) 
0.2

>  <NBS_non-phar>  (11) 
0.6837513446807861

>  <NBS>  (11) 
0.8837513446807861

>  <source_stage>  (11) 
scored

>  <source_iter>  (11) 
5

>  <source_parent_mol>  (11) 
0

>  <source_scenario>  (11) 
1 0 1 0 0

>  <source_rank_in_scored_call>  (11) 
6

>  <source_current_task>  (11) 
build_to_Nd0

>  <scenario>  (11) 
1 0 1 0 0

>  <current_task>  (11) 
close_aromatic_ring

>  <rotatable_bond_torsions>  (11) 
1,0,2,7

>  <reason_to_skip>  (11) 
subgraph mismatch

$$$$

     RDKit          3D

  9  9  0  0  0  0  0  0  0  0999 V2000
  -27.9544   -7.5786  -31.0885 C   0  0  0  0  0  0  0  0  0  0  0  0
  -27.6252   -6.6792  -32.0546 N   0  0  0  0  0  0  0  0  0  0  0  0
  -27.6840   -8.8650  -31.2620 N   0  0  0  0  0  0  0  0  0  0  0  0
  -27.7723   -5.3521  -31.8910 C   0  0  0  0  0  0  0  0  0  0  0  0
  -28.2774   -4.8775  -30.6967 C   0  0  0  0  0  0  0  0  0  0  0  0
  -28.6304   -5.7525  -29.6749 C   0  0  0  0  0  0  0  0  0  0  0  0
  -28.4669   -7.1072  -29.8753 C   0  0  0  0  0  0  0  0  0  0  0  0
  -26.6956   -9.5358  -30.6784 C   0  0  0  0  0  0  0  0  0  0  0  0
  -26.8214  -10.9741  -30.5947 C   0  0  0  0  0  0  0  0  0  0  0  0
  1  2  2  0
  1  3  1  0
  2  4  1  0
  4  5  2  0
  5  6  1  0
  6  7  2  0
  1  7  1  0
  3  8  1  0
  8  9  1  0
M  END
>  <name>  (12) 
Car Nac Nd0 Car Car Car Car Car Car

>  <indices>  (12) 
[0, 1, 2]

>  <tasks>  (12) 
probe_placing close_aromatic_ring close_aromatic_ring close_aromatic_ring close_aromatic_ring ring_built build_to_Nd0

>  <prot_clashes>  (12) 
7

>  <NBS phar>  (12) 
0.2

>  <NBS_non-phar>  (12) 
0.6837513446807861

>  <NBS>  (12) 
0.8837513446807861

>  <source_stage>  (12) 
scored

>  <source_iter>  (12) 
5

>  <source_parent_mol>  (12) 
0

>  <source_scenario>  (12) 
1 0 1 0 0

>  <source_rank_in_scored_call>  (12) 
6

>  <source_current_task>  (12) 
build_to_Nd0

>  <scenario>  (12) 
1 0 1 0 0

>  <current_task>  (12) 
close_aromatic_ring

>  <rotatable_bond_torsions>  (12) 
1,0,2,7

>  <reason_to_skip>  (12) 
subgraph mismatch

$$$$

     RDKit          3D

  9  9  0  0  0  0  0  0  0  0999 V2000
  -27.9544   -7.5786  -31.0885 C   0  0  0  0  0  0  0  0  0  0  0  0
  -27.6252   -6.6792  -32.0546 N   0  0  0  0  0  0  0  0  0  0  0  0
  -27.6840   -8.8650  -31.2620 N   0  0  0  0  0  0  0  0  0  0  0  0
  -27.7723   -5.3521  -31.8910 C   0  0  0  0  0  0  0  0  0  0  0  0
  -28.2774   -4.8775  -30.6967 C   0  0  0  0  0  0  0  0  0  0  0  0
  -28.6304   -5.7525  -29.6749 C   0  0  0  0  0  0  0  0  0  0  0  0
  -28.4669   -7.1072  -29.8753 C   0  0  0  0  0  0  0  0  0  0  0  0
  -26.6956   -9.5358  -30.6784 C   0  0  0  0  0  0  0  0  0  0  0  0
  -25.6318   -9.9693  -31.4480 C   0  0  0  0  0  0  0  0  0  0  0  0
  1  2  2  0
  1  3  1  0
  2  4  1  0
  4  5  2  0
  5  6  1  0
  6  7  2  0
  1  7  1  0
  3  8  1  0
  8  9  1  0
M  END
>  <name>  (13) 
Car Nac Nd0 Car Car Car Car Car Car

>  <indices>  (13) 
[0, 1, 2]

>  <tasks>  (13) 
probe_placing close_aromatic_ring close_aromatic_ring close_aromatic_ring close_aromatic_ring ring_built build_to_Nd0

>  <prot_clashes>  (13) 
7

>  <NBS phar>  (13) 
0.2

>  <NBS_non-phar>  (13) 
0.6837513446807861

>  <NBS>  (13) 
0.8837513446807861

>  <source_stage>  (13) 
scored

>  <source_iter>  (13) 
5

>  <source_parent_mol>  (13) 
0

>  <source_scenario>  (13) 
1 0 1 0 0

>  <source_rank_in_scored_call>  (13) 
6

>  <source_current_task>  (13) 
build_to_Nd0

>  <scenario>  (13) 
1 0 1 0 0

>  <current_task>  (13) 
close_aromatic_ring

>  <rotatable_bond_torsions>  (13) 
1,0,2,7

>  <reason_to_skip>  (13) 
subgraph mismatch

$$$$

     RDKit          3D

  9  9  0  0  0  0  0  0  0  0999 V2000
  -27.9544   -7.5786  -31.0885 C   0  0  0  0  0  0  0  0  0  0  0  0
  -27.6252   -6.6792  -32.0546 N   0  0  0  0  0  0  0  0  0  0  0  0
  -27.6840   -8.8650  -31.2620 N   0  0  0  0  0  0  0  0  0  0  0  0
  -27.7723   -5.3521  -31.8910 C   0  0  0  0  0  0  0  0  0  0  0  0
  -28.2774   -4.8775  -30.6967 C   0  0  0  0  0  0  0  0  0  0  0  0
  -28.6304   -5.7525  -29.6749 C   0  0  0  0  0  0  0  0  0  0  0  0
  -28.4669   -7.1072  -29.8753 C   0  0  0  0  0  0  0  0  0  0  0  0
  -26.6956   -9.5358  -30.6784 C   0  0  0  0  0  0  0  0  0  0  0  0
  -26.3284  -10.7688  -31.0189 N   0  0  0  0  0  0  0  0  0  0  0  0
  1  2  2  0
  1  3  1  0
  2  4  1  0
  4  5  2  0
  5  6  1  0
  6  7  2  0
  1  7  1  0
  3  8  1  0
  8  9  1  0
M  END
>  <name>  (14) 
Car Nac Nd0 Car Car Car Car Car Nd0

>  <indices>  (14) 
[0, 1, 2]

>  <tasks>  (14) 
probe_placing close_aromatic_ring close_aromatic_ring close_aromatic_ring close_aromatic_ring ring_built build_to_Nd0

>  <prot_clashes>  (14) 
7

>  <NBS phar>  (14) 
0.2

>  <NBS_non-phar>  (14) 
0.6837513446807861

>  <NBS>  (14) 
0.8837513446807861

>  <source_stage>  (14) 
scored

>  <source_iter>  (14) 
5

>  <source_parent_mol>  (14) 
0

>  <source_scenario>  (14) 
1 0 1 0 0

>  <source_rank_in_scored_call>  (14) 
6

>  <source_current_task>  (14) 
build_to_Nd0

>  <scenario>  (14) 
1 0 1 0 0

>  <current_task>  (14) 
close_aromatic_ring

>  <rotatable_bond_torsions>  (14) 
1,0,2,7

>  <reason_to_skip>  (14) 
subgraph mismatch

$$$$

     RDKit          3D

  9  9  0  0  0  0  0  0  0  0999 V2000
  -27.9544   -7.5786  -31.0885 C   0  0  0  0  0  0  0  0  0  0  0  0
  -27.6252   -6.6792  -32.0546 N   0  0  0  0  0  0  0  0  0  0  0  0
  -27.6840   -8.8650  -31.2620 N   0  0  0  0  0  0  0  0  0  0  0  0
  -27.7723   -5.3521  -31.8910 C   0  0  0  0  0  0  0  0  0  0  0  0
  -28.2774   -4.8775  -30.6967 C   0  0  0  0  0  0  0  0  0  0  0  0
  -28.6304   -5.7525  -29.6749 C   0  0  0  0  0  0  0  0  0  0  0  0
  -28.4669   -7.1072  -29.8753 C   0  0  0  0  0  0  0  0  0  0  0  0
  -26.6956   -9.5358  -30.6784 C   0  0  0  0  0  0  0  0  0  0  0  0
  -25.9410   -8.7750  -29.8315 N   0  0  0  0  0  0  0  0  0  0  0  0
  1  2  2  0
  1  3  1  0
  2  4  1  0
  4  5  2  0
  5  6  1  0
  6  7  2  0
  1  7  1  0
  3  8  1  0
  8  9  1  0
M  END
>  <name>  (15) 
Car Nac Nd0 Car Car Car Car Car Nd0

>  <indices>  (15) 
[0, 1, 2]

>  <tasks>  (15) 
probe_placing close_aromatic_ring close_aromatic_ring close_aromatic_ring close_aromatic_ring ring_built build_to_Nd0

>  <prot_clashes>  (15) 
7

>  <NBS phar>  (15) 
0.2

>  <NBS_non-phar>  (15) 
0.6837513446807861

>  <NBS>  (15) 
0.8837513446807861

>  <source_stage>  (15) 
scored

>  <source_iter>  (15) 
5

>  <source_parent_mol>  (15) 
0

>  <source_scenario>  (15) 
1 0 1 0 0

>  <source_rank_in_scored_call>  (15) 
6

>  <source_current_task>  (15) 
build_to_Nd0

>  <scenario>  (15) 
1 0 1 0 0

>  <current_task>  (15) 
close_aromatic_ring

>  <rotatable_bond_torsions>  (15) 
1,0,2,7

>  <reason_to_skip>  (15) 
subgraph mismatch

$$$$

     RDKit          3D

  9  9  0  0  0  0  0  0  0  0999 V2000
  -27.9544   -7.5786  -31.0885 C   0  0  0  0  0  0  0  0  0  0  0  0
  -27.6252   -6.6792  -32.0546 N   0  0  0  0  0  0  0  0  0  0  0  0
  -27.6840   -8.8650  -31.2620 N   0  0  0  0  0  0  0  0  0  0  0  0
  -27.7723   -5.3521  -31.8910 C   0  0  0  0  0  0  0  0  0  0  0  0
  -28.2774   -4.8775  -30.6967 C   0  0  0  0  0  0  0  0  0  0  0  0
  -28.6304   -5.7525  -29.6749 C   0  0  0  0  0  0  0  0  0  0  0  0
  -28.4669   -7.1072  -29.8753 C   0  0  0  0  0  0  0  0  0  0  0  0
  -26.6956   -9.5358  -30.6784 C   0  0  0  0  0  0  0  0  0  0  0  0
  -26.3997  -10.8081  -30.9496 N   0  0  0  0  0  0  0  0  0  0  0  0
  1  2  2  0
  1  3  1  0
  2  4  1  0
  4  5  2  0
  5  6  1  0
  6  7  2  0
  1  7  1  0
  3  8  1  0
  8  9  2  0
M  END
>  <name>  (16) 
Car Nac Nd0 Car Car Car Car Car Nac

>  <indices>  (16) 
[0, 1, 2]

>  <tasks>  (16) 
probe_placing close_aromatic_ring close_aromatic_ring close_aromatic_ring close_aromatic_ring ring_built build_to_Nd0

>  <prot_clashes>  (16) 
7

>  <NBS phar>  (16) 
0.2

>  <NBS_non-phar>  (16) 
0.6837513446807861

>  <NBS>  (16) 
0.8837513446807861

>  <source_stage>  (16) 
scored

>  <source_iter>  (16) 
5

>  <source_parent_mol>  (16) 
0

>  <source_scenario>  (16) 
1 0 1 0 0

>  <source_rank_in_scored_call>  (16) 
6

>  <source_current_task>  (16) 
build_to_Nd0

>  <scenario>  (16) 
1 0 1 0 0

>  <current_task>  (16) 
close_aromatic_ring

>  <rotatable_bond_torsions>  (16) 
1,0,2,7

>  <reason_to_skip>  (16) 
subgraph mismatch

$$$$

     RDKit          3D

  9  9  0  0  0  0  0  0  0  0999 V2000
  -27.9544   -7.5786  -31.0885 C   0  0  0  0  0  0  0  0  0  0  0  0
  -27.6252   -6.6792  -32.0546 N   0  0  0  0  0  0  0  0  0  0  0  0
  -27.6840   -8.8650  -31.2620 N   0  0  0  0  0  0  0  0  0  0  0  0
  -27.7723   -5.3521  -31.8910 C   0  0  0  0  0  0  0  0  0  0  0  0
  -28.2774   -4.8775  -30.6967 C   0  0  0  0  0  0  0  0  0  0  0  0
  -28.6304   -5.7525  -29.6749 C   0  0  0  0  0  0  0  0  0  0  0  0
  -28.4669   -7.1072  -29.8753 C   0  0  0  0  0  0  0  0  0  0  0  0
  -26.6956   -9.5358  -30.6784 C   0  0  0  0  0  0  0  0  0  0  0  0
  -25.4801   -9.0261  -30.4243 N   0  0  0  0  0  0  0  0  0  0  0  0
  1  2  2  0
  1  3  1  0
  2  4  1  0
  4  5  2  0
  5  6  1  0
  6  7  2  0
  1  7  1  0
  3  8  1  0
  8  9  2  0
M  END
>  <name>  (17) 
Car Nac Nd0 Car Car Car Car Car Nac

>  <indices>  (17) 
[0, 1, 2]

>  <tasks>  (17) 
probe_placing close_aromatic_ring close_aromatic_ring close_aromatic_ring close_aromatic_ring ring_built build_to_Nd0

>  <prot_clashes>  (17) 
7

>  <NBS phar>  (17) 
0.2

>  <NBS_non-phar>  (17) 
0.6837513446807861

>  <NBS>  (17) 
0.8837513446807861

>  <source_stage>  (17) 
scored

>  <source_iter>  (17) 
5

>  <source_parent_mol>  (17) 
0

>  <source_scenario>  (17) 
1 0 1 0 0

>  <source_rank_in_scored_call>  (17) 
6

>  <source_current_task>  (17) 
build_to_Nd0

>  <scenario>  (17) 
1 0 1 0 0

>  <current_task>  (17) 
close_aromatic_ring

>  <rotatable_bond_torsions>  (17) 
1,0,2,7

>  <reason_to_skip>  (17) 
subgraph mismatch

$$$$

     RDKit          3D

  9  9  0  0  0  0  0  0  0  0999 V2000
  -27.9544   -7.5786  -31.0885 C   0  0  0  0  0  0  0  0  0  0  0  0
  -27.6252   -6.6792  -32.0546 N   0  0  0  0  0  0  0  0  0  0  0  0
  -27.6840   -8.8650  -31.2620 N   0  0  0  0  0  0  0  0  0  0  0  0
  -27.7723   -5.3521  -31.8910 C   0  0  0  0  0  0  0  0  0  0  0  0
  -28.2774   -4.8775  -30.6967 C   0  0  0  0  0  0  0  0  0  0  0  0
  -28.6304   -5.7525  -29.6749 C   0  0  0  0  0  0  0  0  0  0  0  0
  -28.4669   -7.1072  -29.8753 C   0  0  0  0  0  0  0  0  0  0  0  0
  -26.6956   -9.5358  -30.6784 C   0  0  0  0  0  0  0  0  0  0  0  0
  -26.8574  -10.3461  -29.6386 N   0  0  0  0  0  0  0  0  0  0  0  0
  1  2  2  0
  1  3  1  0
  2  4  1  0
  4  5  2  0
  5  6  1  0
  6  7  2  0
  1  7  1  0
  3  8  1  0
  8  9  2  0
M  END
>  <name>  (18) 
Car Nac Nd0 Car Car Car Car Car Nac

>  <indices>  (18) 
[0, 1, 2]

>  <tasks>  (18) 
probe_placing close_aromatic_ring close_aromatic_ring close_aromatic_ring close_aromatic_ring ring_built build_to_Nd0

>  <prot_clashes>  (18) 
7

>  <NBS phar>  (18) 
0.2

>  <NBS_non-phar>  (18) 
0.6837513446807861

>  <NBS>  (18) 
0.8837513446807861

>  <source_stage>  (18) 
scored

>  <source_iter>  (18) 
5

>  <source_parent_mol>  (18) 
0

>  <source_scenario>  (18) 
1 0 1 0 0

>  <source_rank_in_scored_call>  (18) 
6

>  <source_current_task>  (18) 
build_to_Nd0

>  <scenario>  (18) 
1 0 1 0 0

>  <current_task>  (18) 
close_aromatic_ring

>  <rotatable_bond_torsions>  (18) 
1,0,2,7

>  <reason_to_skip>  (18) 
subgraph mismatch

$$$$

     RDKit          3D

  9  9  0  0  0  0  0  0  0  0999 V2000
  -27.9544   -7.5786  -31.0885 C   0  0  0  0  0  0  0  0  0  0  0  0
  -27.6252   -6.6792  -32.0546 N   0  0  0  0  0  0  0  0  0  0  0  0
  -27.6840   -8.8650  -31.2620 N   0  0  0  0  0  0  0  0  0  0  0  0
  -27.7723   -5.3521  -31.8910 C   0  0  0  0  0  0  0  0  0  0  0  0
  -28.2774   -4.8775  -30.6967 C   0  0  0  0  0  0  0  0  0  0  0  0
  -28.6304   -5.7525  -29.6749 C   0  0  0  0  0  0  0  0  0  0  0  0
  -28.4669   -7.1072  -29.8753 C   0  0  0  0  0  0  0  0  0  0  0  0
  -26.6956   -9.5358  -30.6784 C   0  0  0  0  0  0  0  0  0  0  0  0
  -25.7809   -8.8645  -29.9563 N   0  0  0  0  0  0  0  0  0  0  0  0
  1  2  2  0
  1  3  1  0
  2  4  1  0
  4  5  2  0
  5  6  1  0
  6  7  2  0
  1  7  1  0
  3  8  1  0
  8  9  1  0
M  END
>  <name>  (19) 
Car Nac Nd0 Car Car Car Car Car Nac

>  <indices>  (19) 
[0, 1, 2]

>  <tasks>  (19) 
probe_placing close_aromatic_ring close_aromatic_ring close_aromatic_ring close_aromatic_ring ring_built build_to_Nd0

>  <prot_clashes>  (19) 
7

>  <NBS phar>  (19) 
0.2

>  <NBS_non-phar>  (19) 
0.6837513446807861

>  <NBS>  (19) 
0.8837513446807861

>  <source_stage>  (19) 
scored

>  <source_iter>  (19) 
5

>  <source_parent_mol>  (19) 
0

>  <source_scenario>  (19) 
1 0 1 0 0

>  <source_rank_in_scored_call>  (19) 
6

>  <source_current_task>  (19) 
build_to_Nd0

>  <scenario>  (19) 
1 0 1 0 0

>  <current_task>  (19) 
close_aromatic_ring

>  <rotatable_bond_torsions>  (19) 
1,0,2,7

>  <reason_to_skip>  (19) 
subgraph mismatch

$$$$

     RDKit          3D

  9  9  0  0  0  0  0  0  0  0999 V2000
  -27.9544   -7.5786  -31.0885 C   0  0  0  0  0  0  0  0  0  0  0  0
  -27.6252   -6.6792  -32.0546 N   0  0  0  0  0  0  0  0  0  0  0  0
  -27.6840   -8.8650  -31.2620 N   0  0  0  0  0  0  0  0  0  0  0  0
  -27.7723   -5.3521  -31.8910 C   0  0  0  0  0  0  0  0  0  0  0  0
  -28.2774   -4.8775  -30.6967 C   0  0  0  0  0  0  0  0  0  0  0  0
  -28.6304   -5.7525  -29.6749 C   0  0  0  0  0  0  0  0  0  0  0  0
  -28.4669   -7.1072  -29.8753 C   0  0  0  0  0  0  0  0  0  0  0  0
  -26.6956   -9.5358  -30.6784 C   0  0  0  0  0  0  0  0  0  0  0  0
  -25.6781   -9.9564  -31.4134 N   0  0  0  0  0  0  0  0  0  0  0  0
  1  2  2  0
  1  3  1  0
  2  4  1  0
  4  5  2  0
  5  6  1  0
  6  7  2  0
  1  7  1  0
  3  8  1  0
  8  9  1  0
M  END
>  <name>  (20) 
Car Nac Nd0 Car Car Car Car Car Nac

>  <indices>  (20) 
[0, 1, 2]

>  <tasks>  (20) 
probe_placing close_aromatic_ring close_aromatic_ring close_aromatic_ring close_aromatic_ring ring_built build_to_Nd0

>  <prot_clashes>  (20) 
7

>  <NBS phar>  (20) 
0.2

>  <NBS_non-phar>  (20) 
0.6837513446807861

>  <NBS>  (20) 
0.8837513446807861

>  <source_stage>  (20) 
scored

>  <source_iter>  (20) 
5

>  <source_parent_mol>  (20) 
0

>  <source_scenario>  (20) 
1 0 1 0 0

>  <source_rank_in_scored_call>  (20) 
6

>  <source_current_task>  (20) 
build_to_Nd0

>  <scenario>  (20) 
1 0 1 0 0

>  <current_task>  (20) 
close_aromatic_ring

>  <rotatable_bond_torsions>  (20) 
1,0,2,7

>  <reason_to_skip>  (20) 
subgraph mismatch

$$$$

     RDKit          3D

  9  9  0  0  0  0  0  0  0  0999 V2000
  -27.9544   -7.5786  -31.0885 C   0  0  0  0  0  0  0  0  0  0  0  0
  -27.6252   -6.6792  -32.0546 N   0  0  0  0  0  0  0  0  0  0  0  0
  -27.6840   -8.8650  -31.2620 N   0  0  0  0  0  0  0  0  0  0  0  0
  -27.7723   -5.3521  -31.8910 C   0  0  0  0  0  0  0  0  0  0  0  0
  -28.2774   -4.8775  -30.6967 C   0  0  0  0  0  0  0  0  0  0  0  0
  -28.6304   -5.7525  -29.6749 C   0  0  0  0  0  0  0  0  0  0  0  0
  -28.4669   -7.1072  -29.8753 C   0  0  0  0  0  0  0  0  0  0  0  0
  -26.6956   -9.5358  -30.6784 C   0  0  0  0  0  0  0  0  0  0  0  0
  -26.6952  -10.0549  -29.3579 N   0  0  0  0  0  0  0  0  0  0  0  0
  1  2  2  0
  1  3  1  0
  2  4  1  0
  4  5  2  0
  5  6  1  0
  6  7  2  0
  1  7  1  0
  3  8  1  0
  8  9  1  0
M  END
>  <name>  (21) 
Car Nac Nd0 Car Car Car Car Car Nac

>  <indices>  (21) 
[0, 1, 2]

>  <tasks>  (21) 
probe_placing close_aromatic_ring close_aromatic_ring close_aromatic_ring close_aromatic_ring ring_built build_to_Nd0

>  <prot_clashes>  (21) 
7

>  <NBS phar>  (21) 
0.2

>  <NBS_non-phar>  (21) 
0.6837513446807861

>  <NBS>  (21) 
0.8837513446807861

>  <source_stage>  (21) 
scored

>  <source_iter>  (21) 
5

>  <source_parent_mol>  (21) 
0

>  <source_scenario>  (21) 
1 0 1 0 0

>  <source_rank_in_scored_call>  (21) 
6

>  <source_current_task>  (21) 
build_to_Nd0

>  <scenario>  (21) 
1 0 1 0 0

>  <current_task>  (21) 
close_aromatic_ring

>  <rotatable_bond_torsions>  (21) 
1,0,2,7

>  <reason_to_skip>  (21) 
subgraph mismatch

$$$$

     RDKit          3D

  7  6  0  0  0  0  0  0  0  0999 V2000
  -27.8640   -7.4760  -31.1990 C   0  0  0  0  0  0  0  0  0  0  0  0
  -27.5380   -6.7190  -32.2850 N   0  0  0  0  0  0  0  0  0  0  0  0
  -27.6840   -8.8650  -31.2620 N   0  0  0  0  0  0  0  0  0  0  0  0
  -27.8024   -5.3830  -31.8813 C   0  0  0  0  0  0  0  0  0  0  0  0
  -28.2367   -4.9275  -30.7486 C   0  0  0  0  0  0  0  0  0  0  0  0
  -28.5392   -5.7396  -29.6686 N   0  0  0  0  0  0  0  0  0  0  0  0
    0.0000    0.0000    0.0000 N   0  0  0  0  0  0  0  0  0  0  0  0
  1  2  2  3
  1  3  1  0
  2  4  1  0
  4  5  2  3
  5  6  1  0
  6  7  1  0
M  END
>  <name>  (1) 
Car Nac Nd0 Car Car Nd0 Nd0

>  <indices>  (1) 
[0, 1, 2]

>  <dummy>  (1) 
2

>  <tasks>  (1) 
probe_placing close_aromatic_ring close_aromatic_ring close_aromatic_ring

>  <current_task>  (1) 
close_aromatic_ring

>  <prot_clashes>  (1) 
0

>  <NBS phar>  (1) 
0.2

>  <NBS_non-phar>  (1) 
0.7488492329915365

>  <NBS>  (1) 
0.9488492329915366

>  <source_stage>  (1) 
scored

>  <source_iter>  (1) 
3

>  <source_parent_mol>  (1) 
1

>  <source_scenario>  (1) 
1 0 1

>  <source_rank_in_scored_call>  (1) 
2

>  <source_current_task>  (1) 
close_aromatic_ring

>  <scenario>  (1) 
1 0 1

>  <rotatable_bond_torsions>  (1) 
0,1,3,4

>  <reason_to_skip>  (1) 
some_atom_counter_exceeded

$$$$

     RDKit          3D

  7  6  0  0  0  0  0  0  0  0999 V2000
  -27.8640   -7.4760  -31.1990 C   0  0  0  0  0  0  0  0  0  0  0  0
  -27.5380   -6.7190  -32.2850 N   0  0  0  0  0  0  0  0  0  0  0  0
  -27.6840   -8.8650  -31.2620 N   0  0  0  0  0  0  0  0  0  0  0  0
  -27.8024   -5.3830  -31.8813 C   0  0  0  0  0  0  0  0  0  0  0  0
  -28.2367   -4.9275  -30.7486 C   0  0  0  0  0  0  0  0  0  0  0  0
  -28.5392   -5.7396  -29.6686 N   0  0  0  0  0  0  0  0  0  0  0  0
    0.0000    0.0000    0.0000 N   0  0  0  0  0  0  0  0  0  0  0  0
  1  2  2  3
  1  3  1  0
  2  4  1  0
  4  5  2  3
  5  6  1  0
  6  7  1  0
M  END
>  <name>  (2) 
Car Nac Nd0 Car Car Nd0 Nd0

>  <indices>  (2) 
[0, 1, 2]

>  <dummy>  (2) 
2

>  <tasks>  (2) 
probe_placing close_aromatic_ring close_aromatic_ring close_aromatic_ring

>  <current_task>  (2) 
close_aromatic_ring

>  <prot_clashes>  (2) 
0

>  <NBS phar>  (2) 
0.2

>  <NBS_non-phar>  (2) 
0.7488492329915365

>  <NBS>  (2) 
0.9488492329915366

>  <source_stage>  (2) 
scored

>  <source_iter>  (2) 
3

>  <source_parent_mol>  (2) 
1

>  <source_scenario>  (2) 
1 0 1

>  <source_rank_in_scored_call>  (2) 
2

>  <source_current_task>  (2) 
close_aromatic_ring

>  <scenario>  (2) 
1 0 1

>  <rotatable_bond_torsions>  (2) 
0,1,3,4

>  <reason_to_skip>  (2) 
some_atom_counter_exceeded

$$$$

     RDKit          3D

  7  6  0  0  0  0  0  0  0  0999 V2000
  -27.8640   -7.4760  -31.1990 C   0  0  0  0  0  0  0  0  0  0  0  0
  -27.5380   -6.7190  -32.2850 N   0  0  0  0  0  0  0  0  0  0  0  0
  -27.6840   -8.8650  -31.2620 N   0  0  0  0  0  0  0  0  0  0  0  0
  -27.8024   -5.3830  -31.8813 C   0  0  0  0  0  0  0  0  0  0  0  0
  -28.2367   -4.9275  -30.7486 C   0  0  0  0  0  0  0  0  0  0  0  0
  -28.5392   -5.7396  -29.6686 N   0  0  0  0  0  0  0  0  0  0  0  0
  -28.8535   -5.3333  -28.4457 C   0  0  0  0  0  0  0  0  0  0  0  0
  1  2  2  3
  1  3  1  0
  2  4  1  0
  4  5  2  3
  5  6  1  0
  6  7  1  0
M  END
>  <name>  (3) 
Car Nac Nd0 Car Car Nd0 Car

>  <indices>  (3) 
[0, 1, 2]

>  <dummy>  (3) 
2

>  <tasks>  (3) 
probe_placing close_aromatic_ring close_aromatic_ring close_aromatic_ring

>  <current_task>  (3) 
close_aromatic_ring

>  <prot_clashes>  (3) 
0

>  <NBS phar>  (3) 
0.2

>  <NBS_non-phar>  (3) 
0.7488492329915365

>  <NBS>  (3) 
0.9488492329915366

>  <source_stage>  (3) 
scored

>  <source_iter>  (3) 
3

>  <source_parent_mol>  (3) 
1

>  <source_scenario>  (3) 
1 0 1

>  <source_rank_in_scored_call>  (3) 
2

>  <source_current_task>  (3) 
close_aromatic_ring

>  <scenario>  (3) 
1 0 1

>  <rotatable_bond_torsions>  (3) 
0,1,3,4

>  <reason_to_skip>  (3) 
incorrect arom ring closing

$$$$

     RDKit          3D

  7  6  0  0  0  0  0  0  0  0999 V2000
  -27.8640   -7.4760  -31.1990 C   0  0  0  0  0  0  0  0  0  0  0  0
  -27.5380   -6.7190  -32.2850 N   0  0  0  0  0  0  0  0  0  0  0  0
  -27.6840   -8.8650  -31.2620 N   0  0  0  0  0  0  0  0  0  0  0  0
  -27.8024   -5.3830  -31.8813 C   0  0  0  0  0  0  0  0  0  0  0  0
  -28.2367   -4.9275  -30.7486 C   0  0  0  0  0  0  0  0  0  0  0  0
  -28.5392   -5.7396  -29.6686 N   0  0  0  0  0  0  0  0  0  0  0  0
  -28.2192   -6.9379  -30.3111 N   0  0  0  0  0  0  0  0  0  0  0  0
  1  2  2  3
  1  3  1  0
  2  4  1  0
  4  5  2  3
  5  6  1  0
  6  7  1  0
M  END
>  <name>  (4) 
Car Nac Nd0 Car Car Nd0 Nac

>  <indices>  (4) 
[0, 1, 2]

>  <dummy>  (4) 
2

>  <tasks>  (4) 
probe_placing close_aromatic_ring close_aromatic_ring close_aromatic_ring

>  <current_task>  (4) 
close_aromatic_ring

>  <prot_clashes>  (4) 
0

>  <NBS phar>  (4) 
0.2

>  <NBS_non-phar>  (4) 
0.7488492329915365

>  <NBS>  (4) 
0.9488492329915366

>  <source_stage>  (4) 
scored

>  <source_iter>  (4) 
3

>  <source_parent_mol>  (4) 
1

>  <source_scenario>  (4) 
1 0 1

>  <source_rank_in_scored_call>  (4) 
2

>  <source_current_task>  (4) 
close_aromatic_ring

>  <scenario>  (4) 
1 0 1

>  <rotatable_bond_torsions>  (4) 
0,1,3,4

>  <reason_to_skip>  (4) 
bad angles

$$$$

     RDKit          3D

  7  6  0  0  0  0  0  0  0  0999 V2000
  -27.8640   -7.4760  -31.1990 C   0  0  0  0  0  0  0  0  0  0  0  0
  -27.5380   -6.7190  -32.2850 N   0  0  0  0  0  0  0  0  0  0  0  0
  -27.6840   -8.8650  -31.2620 N   0  0  0  0  0  0  0  0  0  0  0  0
  -27.8024   -5.3830  -31.8813 C   0  0  0  0  0  0  0  0  0  0  0  0
  -28.2367   -4.9275  -30.7486 C   0  0  0  0  0  0  0  0  0  0  0  0
  -28.5392   -5.7396  -29.6686 N   0  0  0  0  0  0  0  0  0  0  0  0
  -28.9681   -4.9454  -28.6378 N   0  0  0  0  0  0  0  0  0  0  0  0
  1  2  2  3
  1  3  1  0
  2  4  1  0
  4  5  2  3
  5  6  1  0
  6  7  1  0
M  END
>  <name>  (5) 
Car Nac Nd0 Car Car Nd0 Nac

>  <indices>  (5) 
[0, 1, 2]

>  <dummy>  (5) 
2

>  <tasks>  (5) 
probe_placing close_aromatic_ring close_aromatic_ring close_aromatic_ring

>  <current_task>  (5) 
close_aromatic_ring

>  <prot_clashes>  (5) 
0

>  <NBS phar>  (5) 
0.2

>  <NBS_non-phar>  (5) 
0.7488492329915365

>  <NBS>  (5) 
0.9488492329915366

>  <source_stage>  (5) 
scored

>  <source_iter>  (5) 
3

>  <source_parent_mol>  (5) 
1

>  <source_scenario>  (5) 
1 0 1

>  <source_rank_in_scored_call>  (5) 
2

>  <source_current_task>  (5) 
close_aromatic_ring

>  <scenario>  (5) 
1 0 1

>  <rotatable_bond_torsions>  (5) 
0,1,3,4

>  <reason_to_skip>  (5) 
incorrect arom ring closing

$$$$

     RDKit          3D

  7  6  0  0  0  0  0  0  0  0999 V2000
  -27.8640   -7.4760  -31.1990 C   0  0  0  0  0  0  0  0  0  0  0  0
  -27.5380   -6.7190  -32.2850 N   0  0  0  0  0  0  0  0  0  0  0  0
  -27.6840   -8.8650  -31.2620 N   0  0  0  0  0  0  0  0  0  0  0  0
  -27.8024   -5.3830  -31.8813 C   0  0  0  0  0  0  0  0  0  0  0  0
  -28.2367   -4.9275  -30.7486 C   0  0  0  0  0  0  0  0  0  0  0  0
  -28.5392   -5.7396  -29.6686 N   0  0  0  0  0  0  0  0  0  0  0  0
  -28.5896   -5.4876  -28.3490 C   0  0  0  0  0  0  0  0  0  0  0  0
  1  2  2  3
  1  3  1  0
  2  4  1  0
  4  5  2  3
  5  6  1  0
  6  7  1  0
M  END
>  <name>  (6) 
Car Nac Nd0 Car Car Nd0 Car

>  <indices>  (6) 
[0, 1, 2]

>  <dummy>  (6) 
2

>  <tasks>  (6) 
probe_placing close_aromatic_ring close_aromatic_ring close_aromatic_ring

>  <current_task>  (6) 
close_aromatic_ring

>  <prot_clashes>  (6) 
0

>  <NBS phar>  (6) 
0.2

>  <NBS_non-phar>  (6) 
0.7488492329915365

>  <NBS>  (6) 
0.9488492329915366

>  <source_stage>  (6) 
scored

>  <source_iter>  (6) 
3

>  <source_parent_mol>  (6) 
1

>  <source_scenario>  (6) 
1 0 1

>  <source_rank_in_scored_call>  (6) 
2

>  <source_current_task>  (6) 
close_aromatic_ring

>  <scenario>  (6) 
1 0 1

>  <rotatable_bond_torsions>  (6) 
0,1,3,4

>  <reason_to_skip>  (6) 
incorrect arom ring closing

$$$$

     RDKit          3D

  7  6  0  0  0  0  0  0  0  0999 V2000
  -27.8640   -7.4760  -31.1990 C   0  0  0  0  0  0  0  0  0  0  0  0
  -27.5380   -6.7190  -32.2850 N   0  0  0  0  0  0  0  0  0  0  0  0
  -27.6840   -8.8650  -31.2620 N   0  0  0  0  0  0  0  0  0  0  0  0
  -27.8024   -5.3830  -31.8813 C   0  0  0  0  0  0  0  0  0  0  0  0
  -28.2367   -4.9275  -30.7486 C   0  0  0  0  0  0  0  0  0  0  0  0
  -28.5392   -5.7396  -29.6686 N   0  0  0  0  0  0  0  0  0  0  0  0
  -29.8601   -5.9171  -29.1077 C   0  0  0  0  0  0  0  0  0  0  0  0
  1  2  2  3
  1  3  1  0
  2  4  1  0
  4  5  2  3
  5  6  1  0
  6  7  1  0
M  END
>  <name>  (7) 
Car Nac Nd0 Car Car Nd0 Car

>  <indices>  (7) 
[0, 1, 2]

>  <dummy>  (7) 
2

>  <tasks>  (7) 
probe_placing close_aromatic_ring close_aromatic_ring close_aromatic_ring

>  <current_task>  (7) 
close_aromatic_ring

>  <prot_clashes>  (7) 
0

>  <NBS phar>  (7) 
0.2

>  <NBS_non-phar>  (7) 
0.7488492329915365

>  <NBS>  (7) 
0.9488492329915366

>  <source_stage>  (7) 
scored

>  <source_iter>  (7) 
3

>  <source_parent_mol>  (7) 
1

>  <source_scenario>  (7) 
1 0 1

>  <source_rank_in_scored_call>  (7) 
2

>  <source_current_task>  (7) 
close_aromatic_ring

>  <scenario>  (7) 
1 0 1

>  <rotatable_bond_torsions>  (7) 
0,1,3,4

>  <reason_to_skip>  (7) 
incorrect arom ring closing

$$$$

     RDKit          3D

  7  6  0  0  0  0  0  0  0  0999 V2000
  -27.8640   -7.4760  -31.1990 C   0  0  0  0  0  0  0  0  0  0  0  0
  -27.5380   -6.7190  -32.2850 N   0  0  0  0  0  0  0  0  0  0  0  0
  -27.6840   -8.8650  -31.2620 N   0  0  0  0  0  0  0  0  0  0  0  0
  -27.8024   -5.3830  -31.8813 C   0  0  0  0  0  0  0  0  0  0  0  0
  -28.2367   -4.9275  -30.7486 C   0  0  0  0  0  0  0  0  0  0  0  0
  -28.5392   -5.7396  -29.6686 N   0  0  0  0  0  0  0  0  0  0  0  0
  -27.7329   -5.7777  -28.4698 C   0  0  0  0  0  0  0  0  0  0  0  0
  1  2  2  3
  1  3  1  0
  2  4  1  0
  4  5  2  3
  5  6  1  0
  6  7  1  0
M  END
>  <name>  (8) 
Car Nac Nd0 Car Car Nd0 Car

>  <indices>  (8) 
[0, 1, 2]

>  <dummy>  (8) 
2

>  <tasks>  (8) 
probe_placing close_aromatic_ring close_aromatic_ring close_aromatic_ring

>  <current_task>  (8) 
close_aromatic_ring

>  <prot_clashes>  (8) 
0

>  <NBS phar>  (8) 
0.2

>  <NBS_non-phar>  (8) 
0.7488492329915365

>  <NBS>  (8) 
0.9488492329915366

>  <source_stage>  (8) 
scored

>  <source_iter>  (8) 
3

>  <source_parent_mol>  (8) 
1

>  <source_scenario>  (8) 
1 0 1

>  <source_rank_in_scored_call>  (8) 
2

>  <source_current_task>  (8) 
close_aromatic_ring

>  <scenario>  (8) 
1 0 1

>  <rotatable_bond_torsions>  (8) 
0,1,3,4

>  <reason_to_skip>  (8) 
incorrect arom ring closing

$$$$

     RDKit          3D

  7  6  0  0  0  0  0  0  0  0999 V2000
  -27.8640   -7.4760  -31.1990 C   0  0  0  0  0  0  0  0  0  0  0  0
  -27.5380   -6.7190  -32.2850 N   0  0  0  0  0  0  0  0  0  0  0  0
  -27.6840   -8.8650  -31.2620 N   0  0  0  0  0  0  0  0  0  0  0  0
  -27.8024   -5.3830  -31.8813 C   0  0  0  0  0  0  0  0  0  0  0  0
  -28.2367   -4.9275  -30.7486 C   0  0  0  0  0  0  0  0  0  0  0  0
  -28.5392   -5.7396  -29.6686 N   0  0  0  0  0  0  0  0  0  0  0  0
  -29.7769   -5.9374  -29.2674 C   0  0  0  0  0  0  0  0  0  0  0  0
  1  2  2  3
  1  3  1  0
  2  4  1  0
  4  5  2  3
  5  6  1  0
  6  7  1  0
M  END
>  <name>  (9) 
Car Nac Nd0 Car Car Nd0 Car

>  <indices>  (9) 
[0, 1, 2]

>  <dummy>  (9) 
2

>  <tasks>  (9) 
probe_placing close_aromatic_ring close_aromatic_ring close_aromatic_ring

>  <current_task>  (9) 
close_aromatic_ring

>  <prot_clashes>  (9) 
0

>  <NBS phar>  (9) 
0.2

>  <NBS_non-phar>  (9) 
0.7488492329915365

>  <NBS>  (9) 
0.9488492329915366

>  <source_stage>  (9) 
scored

>  <source_iter>  (9) 
3

>  <source_parent_mol>  (9) 
1

>  <source_scenario>  (9) 
1 0 1

>  <source_rank_in_scored_call>  (9) 
2

>  <source_current_task>  (9) 
close_aromatic_ring

>  <scenario>  (9) 
1 0 1

>  <rotatable_bond_torsions>  (9) 
0,1,3,4

>  <reason_to_skip>  (9) 
incorrect arom ring closing

$$$$

     RDKit          3D

  7  6  0  0  0  0  0  0  0  0999 V2000
  -27.8640   -7.4760  -31.1990 C   0  0  0  0  0  0  0  0  0  0  0  0
  -27.5380   -6.7190  -32.2850 N   0  0  0  0  0  0  0  0  0  0  0  0
  -27.6840   -8.8650  -31.2620 N   0  0  0  0  0  0  0  0  0  0  0  0
  -27.8024   -5.3830  -31.8813 C   0  0  0  0  0  0  0  0  0  0  0  0
  -28.2367   -4.9275  -30.7486 C   0  0  0  0  0  0  0  0  0  0  0  0
  -28.5392   -5.7396  -29.6686 N   0  0  0  0  0  0  0  0  0  0  0  0
  -28.9398   -4.8912  -28.6775 N   0  0  0  0  0  0  0  0  0  0  0  0
  1  2  2  3
  1  3  1  0
  2  4  1  0
  4  5  2  3
  5  6  1  0
  6  7  1  0
M  END
>  <name>  (10) 
Car Nac Nd0 Car Car Nd0 Nac

>  <indices>  (10) 
[0, 1, 2]

>  <dummy>  (10) 
2

>  <tasks>  (10) 
probe_placing close_aromatic_ring close_aromatic_ring close_aromatic_ring

>  <current_task>  (10) 
close_aromatic_ring

>  <prot_clashes>  (10) 
0

>  <NBS phar>  (10) 
0.2

>  <NBS_non-phar>  (10) 
0.7488492329915365

>  <NBS>  (10) 
0.9488492329915366

>  <source_stage>  (10) 
scored

>  <source_iter>  (10) 
3

>  <source_parent_mol>  (10) 
1

>  <source_scenario>  (10) 
1 0 1

>  <source_rank_in_scored_call>  (10) 
2

>  <source_current_task>  (10) 
close_aromatic_ring

>  <scenario>  (10) 
1 0 1

>  <rotatable_bond_torsions>  (10) 
0,1,3,4

>  <reason_to_skip>  (10) 
incorrect arom ring closing

$$$$

     RDKit          3D

  7  6  0  0  0  0  0  0  0  0999 V2000
  -27.8640   -7.4760  -31.1990 C   0  0  0  0  0  0  0  0  0  0  0  0
  -27.5380   -6.7190  -32.2850 N   0  0  0  0  0  0  0  0  0  0  0  0
  -27.6840   -8.8650  -31.2620 N   0  0  0  0  0  0  0  0  0  0  0  0
  -27.8024   -5.3830  -31.8813 C   0  0  0  0  0  0  0  0  0  0  0  0
  -28.2367   -4.9275  -30.7486 C   0  0  0  0  0  0  0  0  0  0  0  0
  -28.5392   -5.7396  -29.6686 N   0  0  0  0  0  0  0  0  0  0  0  0
    0.0000    0.0000    0.0000 O   0  0  0  0  0  0  0  0  0  0  0  0
  1  2  2  3
  1  3  1  0
  2  4  1  0
  4  5  2  3
  5  6  1  0
  6  7  1  0
M  END
>  <name>  (11) 
Car Nac Nd0 Car Car Nd0 O_a

>  <indices>  (11) 
[0, 1, 2]

>  <dummy>  (11) 
2

>  <tasks>  (11) 
probe_placing close_aromatic_ring close_aromatic_ring close_aromatic_ring

>  <current_task>  (11) 
close_aromatic_ring

>  <prot_clashes>  (11) 
0

>  <NBS phar>  (11) 
0.2

>  <NBS_non-phar>  (11) 
0.7488492329915365

>  <NBS>  (11) 
0.9488492329915366

>  <source_stage>  (11) 
scored

>  <source_iter>  (11) 
3

>  <source_parent_mol>  (11) 
1

>  <source_scenario>  (11) 
1 0 1

>  <source_rank_in_scored_call>  (11) 
2

>  <source_current_task>  (11) 
close_aromatic_ring

>  <scenario>  (11) 
1 0 1

>  <rotatable_bond_torsions>  (11) 
0,1,3,4

>  <reason_to_skip>  (11) 
some_atom_counter_exceeded

$$$$

     RDKit          3D

  7  6  0  0  0  0  0  0  0  0999 V2000
  -27.8640   -7.4760  -31.1990 C   0  0  0  0  0  0  0  0  0  0  0  0
  -27.5380   -6.7190  -32.2850 N   0  0  0  0  0  0  0  0  0  0  0  0
  -27.6840   -8.8650  -31.2620 N   0  0  0  0  0  0  0  0  0  0  0  0
  -27.8024   -5.3830  -31.8813 C   0  0  0  0  0  0  0  0  0  0  0  0
  -28.2367   -4.9275  -30.7486 C   0  0  0  0  0  0  0  0  0  0  0  0
  -28.5392   -5.7396  -29.6686 N   0  0  0  0  0  0  0  0  0  0  0  0
    0.0000    0.0000    0.0000 O   0  0  0  0  0  0  0  0  0  0  0  0
  1  2  2  3
  1  3  1  0
  2  4  1  0
  4  5  2  3
  5  6  1  0
  6  7  1  0
M  END
>  <name>  (12) 
Car Nac Nd0 Car Car Nd0 O_a

>  <indices>  (12) 
[0, 1, 2]

>  <dummy>  (12) 
2

>  <tasks>  (12) 
probe_placing close_aromatic_ring close_aromatic_ring close_aromatic_ring

>  <current_task>  (12) 
close_aromatic_ring

>  <prot_clashes>  (12) 
0

>  <NBS phar>  (12) 
0.2

>  <NBS_non-phar>  (12) 
0.7488492329915365

>  <NBS>  (12) 
0.9488492329915366

>  <source_stage>  (12) 
scored

>  <source_iter>  (12) 
3

>  <source_parent_mol>  (12) 
1

>  <source_scenario>  (12) 
1 0 1

>  <source_rank_in_scored_call>  (12) 
2

>  <source_current_task>  (12) 
close_aromatic_ring

>  <scenario>  (12) 
1 0 1

>  <rotatable_bond_torsions>  (12) 
0,1,3,4

>  <reason_to_skip>  (12) 
some_atom_counter_exceeded

$$$$

     RDKit          3D

  7  6  0  0  0  0  0  0  0  0999 V2000
  -27.8640   -7.4760  -31.1990 C   0  0  0  0  0  0  0  0  0  0  0  0
  -27.5380   -6.7190  -32.2850 N   0  0  0  0  0  0  0  0  0  0  0  0
  -27.6840   -8.8650  -31.2620 N   0  0  0  0  0  0  0  0  0  0  0  0
  -27.8024   -5.3830  -31.8813 C   0  0  0  0  0  0  0  0  0  0  0  0
  -28.2367   -4.9275  -30.7486 C   0  0  0  0  0  0  0  0  0  0  0  0
  -28.5392   -5.7396  -29.6686 N   0  0  0  0  0  0  0  0  0  0  0  0
  -29.1375   -6.8271  -29.6902 N   0  0  0  0  0  0  0  0  0  0  0  0
  1  2  2  3
  1  3  1  0
  2  4  1  0
  4  5  2  3
  5  6  1  0
  6  7  1  0
M  END
>  <name>  (13) 
Car Nac Nd0 Car Car Nd0 Nac

>  <indices>  (13) 
[0, 1, 2]

>  <dummy>  (13) 
2

>  <tasks>  (13) 
probe_placing close_aromatic_ring close_aromatic_ring close_aromatic_ring

>  <current_task>  (13) 
close_aromatic_ring

>  <prot_clashes>  (13) 
0

>  <NBS phar>  (13) 
0.2

>  <NBS_non-phar>  (13) 
0.7488492329915365

>  <NBS>  (13) 
0.9488492329915366

>  <source_stage>  (13) 
scored

>  <source_iter>  (13) 
3

>  <source_parent_mol>  (13) 
1

>  <source_scenario>  (13) 
1 0 1

>  <source_rank_in_scored_call>  (13) 
2

>  <source_current_task>  (13) 
close_aromatic_ring

>  <scenario>  (13) 
1 0 1

>  <rotatable_bond_torsions>  (13) 
0,1,3,4

>  <reason_to_skip>  (13) 
incorrect arom ring closing

$$$$

     RDKit          3D

  7  6  0  0  0  0  0  0  0  0999 V2000
  -27.8640   -7.4760  -31.1990 C   0  0  0  0  0  0  0  0  0  0  0  0
  -27.5380   -6.7190  -32.2850 N   0  0  0  0  0  0  0  0  0  0  0  0
  -27.6840   -8.8650  -31.2620 N   0  0  0  0  0  0  0  0  0  0  0  0
  -27.8024   -5.3830  -31.8813 C   0  0  0  0  0  0  0  0  0  0  0  0
  -28.2367   -4.9275  -30.7486 C   0  0  0  0  0  0  0  0  0  0  0  0
  -28.5392   -5.7396  -29.6686 N   0  0  0  0  0  0  0  0  0  0  0  0
    0.0000    0.0000    0.0000 N   0  0  0  0  0  0  0  0  0  0  0  0
  1  2  2  3
  1  3  1  0
  2  4  1  0
  4  5  2  3
  5  6  1  0
  6  7  1  0
M  END
>  <name>  (14) 
Car Nac Nd0 Car Car Nd0 Nd0

>  <indices>  (14) 
[0, 1, 2]

>  <dummy>  (14) 
2

>  <tasks>  (14) 
probe_placing close_aromatic_ring close_aromatic_ring close_aromatic_ring

>  <current_task>  (14) 
close_aromatic_ring

>  <prot_clashes>  (14) 
0

>  <NBS phar>  (14) 
0.2

>  <NBS_non-phar>  (14) 
0.7488492329915365

>  <NBS>  (14) 
0.9488492329915366

>  <source_stage>  (14) 
scored

>  <source_iter>  (14) 
3

>  <source_parent_mol>  (14) 
1

>  <source_scenario>  (14) 
1 0 1

>  <source_rank_in_scored_call>  (14) 
2

>  <source_current_task>  (14) 
close_aromatic_ring

>  <scenario>  (14) 
1 0 1

>  <rotatable_bond_torsions>  (14) 
0,1,3,4

>  <reason_to_skip>  (14) 
some_atom_counter_exceeded

$$$$

     RDKit          3D

  7  6  0  0  0  0  0  0  0  0999 V2000
  -27.8640   -7.4760  -31.1990 C   0  0  0  0  0  0  0  0  0  0  0  0
  -27.5380   -6.7190  -32.2850 N   0  0  0  0  0  0  0  0  0  0  0  0
  -27.6840   -8.8650  -31.2620 N   0  0  0  0  0  0  0  0  0  0  0  0
  -27.8024   -5.3830  -31.8813 C   0  0  0  0  0  0  0  0  0  0  0  0
  -28.2367   -4.9275  -30.7486 C   0  0  0  0  0  0  0  0  0  0  0  0
  -28.5392   -5.7396  -29.6686 N   0  0  0  0  0  0  0  0  0  0  0  0
    0.0000    0.0000    0.0000 N   0  0  0  0  0  0  0  0  0  0  0  0
  1  2  2  3
  1  3  1  0
  2  4  1  0
  4  5  2  3
  5  6  1  0
  6  7  1  0
M  END
>  <name>  (15) 
Car Nac Nd0 Car Car Nd0 Nd0

>  <indices>  (15) 
[0, 1, 2]

>  <dummy>  (15) 
2

>  <tasks>  (15) 
probe_placing close_aromatic_ring close_aromatic_ring close_aromatic_ring

>  <current_task>  (15) 
close_aromatic_ring

>  <prot_clashes>  (15) 
0

>  <NBS phar>  (15) 
0.2

>  <NBS_non-phar>  (15) 
0.7488492329915365

>  <NBS>  (15) 
0.9488492329915366

>  <source_stage>  (15) 
scored

>  <source_iter>  (15) 
3

>  <source_parent_mol>  (15) 
1

>  <source_scenario>  (15) 
1 0 1

>  <source_rank_in_scored_call>  (15) 
2

>  <source_current_task>  (15) 
close_aromatic_ring

>  <scenario>  (15) 
1 0 1

>  <rotatable_bond_torsions>  (15) 
0,1,3,4

>  <reason_to_skip>  (15) 
some_atom_counter_exceeded

$$$$

     RDKit          3D

  7  6  0  0  0  0  0  0  0  0999 V2000
  -27.8640   -7.4760  -31.1990 C   0  0  0  0  0  0  0  0  0  0  0  0
  -27.5380   -6.7190  -32.2850 N   0  0  0  0  0  0  0  0  0  0  0  0
  -27.6840   -8.8650  -31.2620 N   0  0  0  0  0  0  0  0  0  0  0  0
  -27.8024   -5.3830  -31.8813 C   0  0  0  0  0  0  0  0  0  0  0  0
  -28.2367   -4.9275  -30.7486 C   0  0  0  0  0  0  0  0  0  0  0  0
  -28.5392   -5.7396  -29.6686 N   0  0  0  0  0  0  0  0  0  0  0  0
  -29.8445   -6.2101  -29.3185 N   0  0  0  0  0  0  0  0  0  0  0  0
  1  2  2  3
  1  3  1  0
  2  4  1  0
  4  5  2  3
  5  6  1  0
  6  7  1  0
M  END
>  <name>  (16) 
Car Nac Nd0 Car Car Nd0 Nac

>  <indices>  (16) 
[0, 1, 2]

>  <dummy>  (16) 
2

>  <tasks>  (16) 
probe_placing close_aromatic_ring close_aromatic_ring close_aromatic_ring

>  <current_task>  (16) 
close_aromatic_ring

>  <prot_clashes>  (16) 
0

>  <NBS phar>  (16) 
0.2

>  <NBS_non-phar>  (16) 
0.7488492329915365

>  <NBS>  (16) 
0.9488492329915366

>  <source_stage>  (16) 
scored

>  <source_iter>  (16) 
3

>  <source_parent_mol>  (16) 
1

>  <source_scenario>  (16) 
1 0 1

>  <source_rank_in_scored_call>  (16) 
2

>  <source_current_task>  (16) 
close_aromatic_ring

>  <scenario>  (16) 
1 0 1

>  <rotatable_bond_torsions>  (16) 
0,1,3,4

>  <reason_to_skip>  (16) 
incorrect arom ring closing

$$$$

     RDKit          3D

  7  6  0  0  0  0  0  0  0  0999 V2000
  -27.8640   -7.4760  -31.1990 C   0  0  0  0  0  0  0  0  0  0  0  0
  -27.5380   -6.7190  -32.2850 N   0  0  0  0  0  0  0  0  0  0  0  0
  -27.6840   -8.8650  -31.2620 N   0  0  0  0  0  0  0  0  0  0  0  0
  -27.8024   -5.3830  -31.8813 C   0  0  0  0  0  0  0  0  0  0  0  0
  -28.2367   -4.9275  -30.7486 C   0  0  0  0  0  0  0  0  0  0  0  0
  -28.5392   -5.7396  -29.6686 N   0  0  0  0  0  0  0  0  0  0  0  0
  -27.5877   -6.2343  -28.7462 N   0  0  0  0  0  0  0  0  0  0  0  0
  1  2  2  3
  1  3  1  0
  2  4  1  0
  4  5  2  3
  5  6  1  0
  6  7  1  0
M  END
>  <name>  (17) 
Car Nac Nd0 Car Car Nd0 Nac

>  <indices>  (17) 
[0, 1, 2]

>  <dummy>  (17) 
2

>  <tasks>  (17) 
probe_placing close_aromatic_ring close_aromatic_ring close_aromatic_ring

>  <current_task>  (17) 
close_aromatic_ring

>  <prot_clashes>  (17) 
0

>  <NBS phar>  (17) 
0.2

>  <NBS_non-phar>  (17) 
0.7488492329915365

>  <NBS>  (17) 
0.9488492329915366

>  <source_stage>  (17) 
scored

>  <source_iter>  (17) 
3

>  <source_parent_mol>  (17) 
1

>  <source_scenario>  (17) 
1 0 1

>  <source_rank_in_scored_call>  (17) 
2

>  <source_current_task>  (17) 
close_aromatic_ring

>  <scenario>  (17) 
1 0 1

>  <rotatable_bond_torsions>  (17) 
0,1,3,4

>  <reason_to_skip>  (17) 
incorrect arom ring closing

$$$$

     RDKit          3D

  7  6  0  0  0  0  0  0  0  0999 V2000
  -27.8640   -7.4760  -31.1990 C   0  0  0  0  0  0  0  0  0  0  0  0
  -27.5380   -6.7190  -32.2850 N   0  0  0  0  0  0  0  0  0  0  0  0
  -27.6840   -8.8650  -31.2620 N   0  0  0  0  0  0  0  0  0  0  0  0
  -27.8024   -5.3830  -31.8813 C   0  0  0  0  0  0  0  0  0  0  0  0
  -28.2367   -4.9275  -30.7486 C   0  0  0  0  0  0  0  0  0  0  0  0
  -28.5392   -5.7396  -29.6686 N   0  0  0  0  0  0  0  0  0  0  0  0
  -28.0732   -6.7868  -29.2458 N   0  0  0  0  0  0  0  0  0  0  0  0
  1  2  2  3
  1  3  1  0
  2  4  1  0
  4  5  2  3
  5  6  1  0
  6  7  1  0
M  END
>  <name>  (18) 
Car Nac Nd0 Car Car Nd0 Nac

>  <indices>  (18) 
[0, 1, 2]

>  <dummy>  (18) 
2

>  <tasks>  (18) 
probe_placing close_aromatic_ring close_aromatic_ring close_aromatic_ring

>  <current_task>  (18) 
close_aromatic_ring

>  <prot_clashes>  (18) 
0

>  <NBS phar>  (18) 
0.2

>  <NBS_non-phar>  (18) 
0.7488492329915365

>  <NBS>  (18) 
0.9488492329915366

>  <source_stage>  (18) 
scored

>  <source_iter>  (18) 
3

>  <source_parent_mol>  (18) 
1

>  <source_scenario>  (18) 
1 0 1

>  <source_rank_in_scored_call>  (18) 
2

>  <source_current_task>  (18) 
close_aromatic_ring

>  <scenario>  (18) 
1 0 1

>  <rotatable_bond_torsions>  (18) 
0,1,3,4

>  <reason_to_skip>  (18) 
incorrect arom ring closing

$$$$

     RDKit          3D

  7  6  0  0  0  0  0  0  0  0999 V2000
  -27.8640   -7.4760  -31.1990 C   0  0  0  0  0  0  0  0  0  0  0  0
  -27.5380   -6.7190  -32.2850 N   0  0  0  0  0  0  0  0  0  0  0  0
  -27.6840   -8.8650  -31.2620 N   0  0  0  0  0  0  0  0  0  0  0  0
  -27.8024   -5.3830  -31.8813 C   0  0  0  0  0  0  0  0  0  0  0  0
  -28.2367   -4.9275  -30.7486 C   0  0  0  0  0  0  0  0  0  0  0  0
  -28.5392   -5.7396  -29.6686 N   0  0  0  0  0  0  0  0  0  0  0  0
    0.0000    0.0000    0.0000 N   0  0  0  0  0  0  0  0  0  0  0  0
  1  2  2  3
  1  3  1  0
  2  4  1  0
  4  5  2  3
  5  6  1  0
  6  7  1  0
M  END
>  <name>  (19) 
Car Nac Nd0 Car Car Nd0 Nd0

>  <indices>  (19) 
[0, 1, 2]

>  <dummy>  (19) 
2

>  <tasks>  (19) 
probe_placing close_aromatic_ring close_aromatic_ring close_aromatic_ring

>  <current_task>  (19) 
close_aromatic_ring

>  <prot_clashes>  (19) 
0

>  <NBS phar>  (19) 
0.2

>  <NBS_non-phar>  (19) 
0.7488492329915365

>  <NBS>  (19) 
0.9488492329915366

>  <source_stage>  (19) 
scored

>  <source_iter>  (19) 
3

>  <source_parent_mol>  (19) 
1

>  <source_scenario>  (19) 
1 0 1

>  <source_rank_in_scored_call>  (19) 
2

>  <source_current_task>  (19) 
close_aromatic_ring

>  <scenario>  (19) 
1 0 1

>  <rotatable_bond_torsions>  (19) 
0,1,3,4

>  <reason_to_skip>  (19) 
some_atom_counter_exceeded

$$$$

     RDKit          3D

  7  6  0  0  0  0  0  0  0  0999 V2000
  -27.8640   -7.4760  -31.1990 C   0  0  0  0  0  0  0  0  0  0  0  0
  -27.5380   -6.7190  -32.2850 N   0  0  0  0  0  0  0  0  0  0  0  0
  -27.6840   -8.8650  -31.2620 N   0  0  0  0  0  0  0  0  0  0  0  0
  -27.8024   -5.3830  -31.8813 C   0  0  0  0  0  0  0  0  0  0  0  0
  -28.2367   -4.9275  -30.7486 C   0  0  0  0  0  0  0  0  0  0  0  0
  -28.5392   -5.7396  -29.6686 N   0  0  0  0  0  0  0  0  0  0  0  0
    0.0000    0.0000    0.0000 S   0  0  0  0  0  0  0  0  0  0  0  0
  1  2  2  3
  1  3  1  0
  2  4  1  0
  4  5  2  3
  5  6  1  0
  6  7  1  0
M  END
>  <name>  (20) 
Car Nac Nd0 Car Car Nd0 Sul

>  <indices>  (20) 
[0, 1, 2]

>  <dummy>  (20) 
2

>  <tasks>  (20) 
probe_placing close_aromatic_ring close_aromatic_ring close_aromatic_ring

>  <current_task>  (20) 
close_aromatic_ring

>  <prot_clashes>  (20) 
0

>  <NBS phar>  (20) 
0.2

>  <NBS_non-phar>  (20) 
0.7488492329915365

>  <NBS>  (20) 
0.9488492329915366

>  <source_stage>  (20) 
scored

>  <source_iter>  (20) 
3

>  <source_parent_mol>  (20) 
1

>  <source_scenario>  (20) 
1 0 1

>  <source_rank_in_scored_call>  (20) 
2

>  <source_current_task>  (20) 
close_aromatic_ring

>  <scenario>  (20) 
1 0 1

>  <rotatable_bond_torsions>  (20) 
0,1,3,4

>  <reason_to_skip>  (20) 
some_atom_counter_exceeded

$$$$

     RDKit          3D

  7  6  0  0  0  0  0  0  0  0999 V2000
  -27.8640   -7.4760  -31.1990 C   0  0  0  0  0  0  0  0  0  0  0  0
  -27.5380   -6.7190  -32.2850 N   0  0  0  0  0  0  0  0  0  0  0  0
  -27.6840   -8.8650  -31.2620 N   0  0  0  0  0  0  0  0  0  0  0  0
  -27.8024   -5.3830  -31.8813 C   0  0  0  0  0  0  0  0  0  0  0  0
  -28.2367   -4.9275  -30.7486 C   0  0  0  0  0  0  0  0  0  0  0  0
  -28.5392   -5.7396  -29.6686 N   0  0  0  0  0  0  0  0  0  0  0  0
  -28.2188   -7.0095  -30.2747 C   0  0  0  0  0  0  0  0  0  0  0  0
  1  2  2  3
  1  3  1  0
  2  4  1  0
  4  5  2  3
  5  6  1  0
  6  7  1  0
M  END
>  <name>  (21) 
Car Nac Nd0 Car Car Nd0 Car

>  <indices>  (21) 
[0, 1, 2]

>  <dummy>  (21) 
2

>  <tasks>  (21) 
probe_placing close_aromatic_ring close_aromatic_ring close_aromatic_ring

>  <current_task>  (21) 
close_aromatic_ring

>  <prot_clashes>  (21) 
0

>  <NBS phar>  (21) 
0.2

>  <NBS_non-phar>  (21) 
0.7488492329915365

>  <NBS>  (21) 
0.9488492329915366

>  <source_stage>  (21) 
scored

>  <source_iter>  (21) 
3

>  <source_parent_mol>  (21) 
1

>  <source_scenario>  (21) 
1 0 1

>  <source_rank_in_scored_call>  (21) 
2

>  <source_current_task>  (21) 
close_aromatic_ring

>  <scenario>  (21) 
1 0 1

>  <rotatable_bond_torsions>  (21) 
0,1,3,4

>  <reason_to_skip>  (21) 
bad angles

$$$$

     RDKit          3D

  7  7  0  0  0  0  0  0  0  0999 V2000
  -27.8659   -7.5409  -31.1708 C   0  0  0  0  0  0  0  0  0  0  0  0
  -27.6109   -6.6901  -32.1018 N   0  0  0  0  0  0  0  0  0  0  0  0
  -27.6840   -8.8650  -31.2620 N   0  0  0  0  0  0  0  0  0  0  0  0
  -27.7808   -5.2858  -31.9554 C   0  0  0  0  0  0  0  0  0  0  0  0
  -28.2267   -4.8579  -30.7876 C   0  0  0  0  0  0  0  0  0  0  0  0
  -28.5169   -5.7679  -29.7421 N   0  0  0  0  0  0  0  0  0  0  0  0
  -28.3674   -7.1974  -29.8248 C   0  0  0  0  0  0  0  0  0  0  0  0
  1  2  2  0
  1  3  1  0
  2  4  1  0
  4  5  2  0
  5  6  1  0
  6  7  1  0
  1  7  1  0
M  END
>  <name>  (22) 
Car Nac Nd0 Car Car Nd0 Car

>  <indices>  (22) 
[0, 1, 2]

>  <dummy>  (22) 
2

>  <tasks>  (22) 
probe_placing close_aromatic_ring close_aromatic_ring close_aromatic_ring

>  <current_task>  (22) 
fix_Car

>  <prot_clashes>  (22) 
0

>  <NBS phar>  (22) 
0.2

>  <NBS_non-phar>  (22) 
0.7488492329915365

>  <NBS>  (22) 
0.9488492329915366

>  <source_stage>  (22) 
scored

>  <source_iter>  (22) 
3

>  <source_parent_mol>  (22) 
1

>  <source_scenario>  (22) 
1 0 1

>  <source_rank_in_scored_call>  (22) 
2

>  <source_current_task>  (22) 
close_aromatic_ring

>  <scenario>  (22) 
1 0 1

>  <rotatable_bond_torsions>  (22) 
0,1,3,4

>  <reason_to_skip>  (22) 
subgraph mismatch

$$$$

     RDKit          3D

  6  5  0  0  0  0  0  0  0  0999 V2000
  -27.7800   -7.4870  -31.5600 C   0  0  0  0  0  0  0  0  0  0  0  0
  -27.3190   -6.6400  -32.5230 N   0  0  0  0  0  0  0  0  0  0  0  0
  -27.6660   -8.8700  -31.7620 N   0  0  0  0  0  0  0  0  0  0  0  0
  -27.5500   -5.3410  -31.9960 C   0  0  0  0  0  0  0  0  0  0  0  0
  -27.3040   -4.0850  -32.5120 C   0  0  0  0  0  0  0  0  0  0  0  0
  -27.5804   -2.9600  -31.8794 C   0  0  0  0  0  0  0  0  0  0  0  0
  1  2  2  3
  1  3  1  0
  2  4  1  0
  4  5  2  3
  5  6  1  0
M  END
>  <name>  (1) 
Car Nac Nd0 Car Car Car

>  <indices>  (1) 
[0, 1, 2]

>  <dummy>  (1) 
2

>  <tasks>  (1) 
probe_placing close_aromatic_ring close_aromatic_ring

>  <current_task>  (1) 
close_aromatic_ring

>  <prot_clashes>  (1) 
1

>  <NBS phar>  (1) 
0.2

>  <NBS_non-phar>  (1) 
0.7970532894134521

>  <NBS>  (1) 
0.9970532894134521

>  <source_stage>  (1) 
scored

>  <source_iter>  (1) 
2

>  <source_parent_mol>  (1) 
0

>  <source_scenario>  (1) 
1 0

>  <source_rank_in_scored_call>  (1) 
4

>  <source_current_task>  (1) 
close_aromatic_ring

>  <scenario>  (1) 
1 0

>  <rotatable_bond_torsions>  (1) 
0,1,3,4

>  <reason_to_skip>  (1) 
incorrect arom ring closing

$$$$

     RDKit          3D

  6  5  0  0  0  0  0  0  0  0999 V2000
  -27.7800   -7.4870  -31.5600 C   0  0  0  0  0  0  0  0  0  0  0  0
  -27.3190   -6.6400  -32.5230 N   0  0  0  0  0  0  0  0  0  0  0  0
  -27.6660   -8.8700  -31.7620 N   0  0  0  0  0  0  0  0  0  0  0  0
  -27.5500   -5.3410  -31.9960 C   0  0  0  0  0  0  0  0  0  0  0  0
  -27.3040   -4.0850  -32.5120 C   0  0  0  0  0  0  0  0  0  0  0  0
  -26.7071   -4.1530  -33.8143 C   0  0  0  0  0  0  0  0  0  0  0  0
  1  2  2  3
  1  3  1  0
  2  4  1  0
  4  5  2  3
  5  6  1  0
M  END
>  <name>  (2) 
Car Nac Nd0 Car Car Car

>  <indices>  (2) 
[0, 1, 2]

>  <dummy>  (2) 
2

>  <tasks>  (2) 
probe_placing close_aromatic_ring close_aromatic_ring

>  <current_task>  (2) 
close_aromatic_ring

>  <prot_clashes>  (2) 
1

>  <NBS phar>  (2) 
0.2

>  <NBS_non-phar>  (2) 
0.7970532894134521

>  <NBS>  (2) 
0.9970532894134521

>  <source_stage>  (2) 
scored

>  <source_iter>  (2) 
2

>  <source_parent_mol>  (2) 
0

>  <source_scenario>  (2) 
1 0

>  <source_rank_in_scored_call>  (2) 
4

>  <source_current_task>  (2) 
close_aromatic_ring

>  <scenario>  (2) 
1 0

>  <rotatable_bond_torsions>  (2) 
0,1,3,4

>  <reason_to_skip>  (2) 
incorrect arom ring closing

$$$$

     RDKit          3D

  6  5  0  0  0  0  0  0  0  0999 V2000
  -27.7800   -7.4870  -31.5600 C   0  0  0  0  0  0  0  0  0  0  0  0
  -27.3190   -6.6400  -32.5230 N   0  0  0  0  0  0  0  0  0  0  0  0
  -27.6660   -8.8700  -31.7620 N   0  0  0  0  0  0  0  0  0  0  0  0
  -27.5500   -5.3410  -31.9960 C   0  0  0  0  0  0  0  0  0  0  0  0
  -27.3040   -4.0850  -32.5120 C   0  0  0  0  0  0  0  0  0  0  0  0
  -26.7191   -4.6537  -33.8026 N   0  0  0  0  0  0  0  0  0  0  0  0
  1  2  2  3
  1  3  1  0
  2  4  1  0
  4  5  2  3
  5  6  1  0
M  END
>  <name>  (3) 
Car Nac Nd0 Car Car Nac

>  <indices>  (3) 
[0, 1, 2]

>  <dummy>  (3) 
2

>  <tasks>  (3) 
probe_placing close_aromatic_ring close_aromatic_ring

>  <current_task>  (3) 
close_aromatic_ring

>  <prot_clashes>  (3) 
1

>  <NBS phar>  (3) 
0.2

>  <NBS_non-phar>  (3) 
0.7970532894134521

>  <NBS>  (3) 
0.9970532894134521

>  <source_stage>  (3) 
scored

>  <source_iter>  (3) 
2

>  <source_parent_mol>  (3) 
0

>  <source_scenario>  (3) 
1 0

>  <source_rank_in_scored_call>  (3) 
4

>  <source_current_task>  (3) 
close_aromatic_ring

>  <scenario>  (3) 
1 0

>  <rotatable_bond_torsions>  (3) 
0,1,3,4

>  <reason_to_skip>  (3) 
bad angles

$$$$

     RDKit          3D

  6  5  0  0  0  0  0  0  0  0999 V2000
  -27.7800   -7.4870  -31.5600 C   0  0  0  0  0  0  0  0  0  0  0  0
  -27.3190   -6.6400  -32.5230 N   0  0  0  0  0  0  0  0  0  0  0  0
  -27.6660   -8.8700  -31.7620 N   0  0  0  0  0  0  0  0  0  0  0  0
  -27.5500   -5.3410  -31.9960 C   0  0  0  0  0  0  0  0  0  0  0  0
  -27.3040   -4.0850  -32.5120 C   0  0  0  0  0  0  0  0  0  0  0  0
  -27.6501   -3.0173  -31.7365 N   0  0  0  0  0  0  0  0  0  0  0  0
  1  2  2  3
  1  3  1  0
  2  4  1  0
  4  5  2  3
  5  6  1  0
M  END
>  <name>  (4) 
Car Nac Nd0 Car Car Nac

>  <indices>  (4) 
[0, 1, 2]

>  <dummy>  (4) 
2

>  <tasks>  (4) 
probe_placing close_aromatic_ring close_aromatic_ring

>  <current_task>  (4) 
close_aromatic_ring

>  <prot_clashes>  (4) 
1

>  <NBS phar>  (4) 
0.2

>  <NBS_non-phar>  (4) 
0.7970532894134521

>  <NBS>  (4) 
0.9970532894134521

>  <source_stage>  (4) 
scored

>  <source_iter>  (4) 
2

>  <source_parent_mol>  (4) 
0

>  <source_scenario>  (4) 
1 0

>  <source_rank_in_scored_call>  (4) 
4

>  <source_current_task>  (4) 
close_aromatic_ring

>  <scenario>  (4) 
1 0

>  <rotatable_bond_torsions>  (4) 
0,1,3,4

>  <reason_to_skip>  (4) 
incorrect arom ring closing

$$$$

     RDKit          3D

  6  5  0  0  0  0  0  0  0  0999 V2000
  -27.7800   -7.4870  -31.5600 C   0  0  0  0  0  0  0  0  0  0  0  0
  -27.3190   -6.6400  -32.5230 N   0  0  0  0  0  0  0  0  0  0  0  0
  -27.6660   -8.8700  -31.7620 N   0  0  0  0  0  0  0  0  0  0  0  0
  -27.5500   -5.3410  -31.9960 C   0  0  0  0  0  0  0  0  0  0  0  0
  -27.3040   -4.0850  -32.5120 C   0  0  0  0  0  0  0  0  0  0  0  0
  -26.7969   -3.0541  -31.8071 C   0  0  0  0  0  0  0  0  0  0  0  0
  1  2  2  3
  1  3  1  0
  2  4  1  0
  4  5  2  3
  5  6  1  0
M  END
>  <name>  (5) 
Car Nac Nd0 Car Car Car

>  <indices>  (5) 
[0, 1, 2]

>  <dummy>  (5) 
2

>  <tasks>  (5) 
probe_placing close_aromatic_ring close_aromatic_ring

>  <current_task>  (5) 
close_aromatic_ring

>  <prot_clashes>  (5) 
1

>  <NBS phar>  (5) 
0.2

>  <NBS_non-phar>  (5) 
0.7970532894134521

>  <NBS>  (5) 
0.9970532894134521

>  <source_stage>  (5) 
scored

>  <source_iter>  (5) 
2

>  <source_parent_mol>  (5) 
0

>  <source_scenario>  (5) 
1 0

>  <source_rank_in_scored_call>  (5) 
4

>  <source_current_task>  (5) 
close_aromatic_ring

>  <scenario>  (5) 
1 0

>  <rotatable_bond_torsions>  (5) 
0,1,3,4

>  <reason_to_skip>  (5) 
incorrect arom ring closing

$$$$

     RDKit          3D

  6  5  0  0  0  0  0  0  0  0999 V2000
  -27.7800   -7.4870  -31.5600 C   0  0  0  0  0  0  0  0  0  0  0  0
  -27.3190   -6.6400  -32.5230 N   0  0  0  0  0  0  0  0  0  0  0  0
  -27.6660   -8.8700  -31.7620 N   0  0  0  0  0  0  0  0  0  0  0  0
  -27.5500   -5.3410  -31.9960 C   0  0  0  0  0  0  0  0  0  0  0  0
  -27.3040   -4.0850  -32.5120 C   0  0  0  0  0  0  0  0  0  0  0  0
  -26.9521   -2.9902  -31.7453 C   0  0  0  0  0  0  0  0  0  0  0  0
  1  2  2  3
  1  3  1  0
  2  4  1  0
  4  5  2  3
  5  6  1  0
M  END
>  <name>  (6) 
Car Nac Nd0 Car Car Car

>  <indices>  (6) 
[0, 1, 2]

>  <dummy>  (6) 
2

>  <tasks>  (6) 
probe_placing close_aromatic_ring close_aromatic_ring

>  <current_task>  (6) 
close_aromatic_ring

>  <prot_clashes>  (6) 
1

>  <NBS phar>  (6) 
0.2

>  <NBS_non-phar>  (6) 
0.7970532894134521

>  <NBS>  (6) 
0.9970532894134521

>  <source_stage>  (6) 
scored

>  <source_iter>  (6) 
2

>  <source_parent_mol>  (6) 
0

>  <source_scenario>  (6) 
1 0

>  <source_rank_in_scored_call>  (6) 
4

>  <source_current_task>  (6) 
close_aromatic_ring

>  <scenario>  (6) 
1 0

>  <rotatable_bond_torsions>  (6) 
0,1,3,4

>  <reason_to_skip>  (6) 
incorrect arom ring closing

$$$$

     RDKit          3D

  6  5  0  0  0  0  0  0  0  0999 V2000
  -27.7800   -7.4870  -31.5600 C   0  0  0  0  0  0  0  0  0  0  0  0
  -27.3190   -6.6400  -32.5230 N   0  0  0  0  0  0  0  0  0  0  0  0
  -27.6660   -8.8700  -31.7620 N   0  0  0  0  0  0  0  0  0  0  0  0
  -27.5500   -5.3410  -31.9960 C   0  0  0  0  0  0  0  0  0  0  0  0
  -27.3040   -4.0850  -32.5120 C   0  0  0  0  0  0  0  0  0  0  0  0
  -27.4448   -2.8989  -32.2601 N   0  0  0  0  0  0  0  0  0  0  0  0
  1  2  2  3
  1  3  1  0
  2  4  1  0
  4  5  2  3
  5  6  1  0
M  END
>  <name>  (7) 
Car Nac Nd0 Car Car Nd0

>  <indices>  (7) 
[0, 1, 2]

>  <dummy>  (7) 
2

>  <tasks>  (7) 
probe_placing close_aromatic_ring close_aromatic_ring

>  <current_task>  (7) 
close_aromatic_ring

>  <prot_clashes>  (7) 
1

>  <NBS phar>  (7) 
0.2

>  <NBS_non-phar>  (7) 
0.7970532894134521

>  <NBS>  (7) 
0.9970532894134521

>  <source_stage>  (7) 
scored

>  <source_iter>  (7) 
2

>  <source_parent_mol>  (7) 
0

>  <source_scenario>  (7) 
1 0

>  <source_rank_in_scored_call>  (7) 
4

>  <source_current_task>  (7) 
close_aromatic_ring

>  <scenario>  (7) 
1 0

>  <rotatable_bond_torsions>  (7) 
0,1,3,4

>  <reason_to_skip>  (7) 
bad angles

$$$$

     RDKit          3D

  6  5  0  0  0  0  0  0  0  0999 V2000
  -27.7800   -7.4870  -31.5600 C   0  0  0  0  0  0  0  0  0  0  0  0
  -27.3190   -6.6400  -32.5230 N   0  0  0  0  0  0  0  0  0  0  0  0
  -27.6660   -8.8700  -31.7620 N   0  0  0  0  0  0  0  0  0  0  0  0
  -27.5500   -5.3410  -31.9960 C   0  0  0  0  0  0  0  0  0  0  0  0
  -27.3040   -4.0850  -32.5120 C   0  0  0  0  0  0  0  0  0  0  0  0
  -26.7421   -4.6891  -33.7646 N   0  0  0  0  0  0  0  0  0  0  0  0
  1  2  2  3
  1  3  1  0
  2  4  1  0
  4  5  2  3
  5  6  1  0
M  END
>  <name>  (8) 
Car Nac Nd0 Car Car Nac

>  <indices>  (8) 
[0, 1, 2]

>  <dummy>  (8) 
2

>  <tasks>  (8) 
probe_placing close_aromatic_ring close_aromatic_ring

>  <current_task>  (8) 
close_aromatic_ring

>  <prot_clashes>  (8) 
1

>  <NBS phar>  (8) 
0.2

>  <NBS_non-phar>  (8) 
0.7970532894134521

>  <NBS>  (8) 
0.9970532894134521

>  <source_stage>  (8) 
scored

>  <source_iter>  (8) 
2

>  <source_parent_mol>  (8) 
0

>  <source_scenario>  (8) 
1 0

>  <source_rank_in_scored_call>  (8) 
4

>  <source_current_task>  (8) 
close_aromatic_ring

>  <scenario>  (8) 
1 0

>  <rotatable_bond_torsions>  (8) 
0,1,3,4

>  <reason_to_skip>  (8) 
bad angles

$$$$

     RDKit          3D

  6  5  0  0  0  0  0  0  0  0999 V2000
  -27.7800   -7.4870  -31.5600 C   0  0  0  0  0  0  0  0  0  0  0  0
  -27.3190   -6.6400  -32.5230 N   0  0  0  0  0  0  0  0  0  0  0  0
  -27.6660   -8.8700  -31.7620 N   0  0  0  0  0  0  0  0  0  0  0  0
  -27.5500   -5.3410  -31.9960 C   0  0  0  0  0  0  0  0  0  0  0  0
  -27.3040   -4.0850  -32.5120 C   0  0  0  0  0  0  0  0  0  0  0  0
  -26.6892   -4.1930  -33.8098 N   0  0  0  0  0  0  0  0  0  0  0  0
  1  2  2  3
  1  3  1  0
  2  4  1  0
  4  5  2  3
  5  6  1  0
M  END
>  <name>  (9) 
Car Nac Nd0 Car Car Nac

>  <indices>  (9) 
[0, 1, 2]

>  <dummy>  (9) 
2

>  <tasks>  (9) 
probe_placing close_aromatic_ring close_aromatic_ring

>  <current_task>  (9) 
close_aromatic_ring

>  <prot_clashes>  (9) 
1

>  <NBS phar>  (9) 
0.2

>  <NBS_non-phar>  (9) 
0.7970532894134521

>  <NBS>  (9) 
0.9970532894134521

>  <source_stage>  (9) 
scored

>  <source_iter>  (9) 
2

>  <source_parent_mol>  (9) 
0

>  <source_scenario>  (9) 
1 0

>  <source_rank_in_scored_call>  (9) 
4

>  <source_current_task>  (9) 
close_aromatic_ring

>  <scenario>  (9) 
1 0

>  <rotatable_bond_torsions>  (9) 
0,1,3,4

>  <reason_to_skip>  (9) 
incorrect arom ring closing

$$$$

     RDKit          3D

  6  5  0  0  0  0  0  0  0  0999 V2000
  -27.7800   -7.4870  -31.5600 C   0  0  0  0  0  0  0  0  0  0  0  0
  -27.3190   -6.6400  -32.5230 N   0  0  0  0  0  0  0  0  0  0  0  0
  -27.6660   -8.8700  -31.7620 N   0  0  0  0  0  0  0  0  0  0  0  0
  -27.5500   -5.3410  -31.9960 C   0  0  0  0  0  0  0  0  0  0  0  0
  -27.3040   -4.0850  -32.5120 C   0  0  0  0  0  0  0  0  0  0  0  0
  -26.7046   -4.1778  -33.8221 C   0  0  0  0  0  0  0  0  0  0  0  0
  1  2  2  3
  1  3  1  0
  2  4  1  0
  4  5  2  3
  5  6  1  0
M  END
>  <name>  (10) 
Car Nac Nd0 Car Car Car

>  <indices>  (10) 
[0, 1, 2]

>  <dummy>  (10) 
2

>  <tasks>  (10) 
probe_placing close_aromatic_ring close_aromatic_ring

>  <current_task>  (10) 
close_aromatic_ring

>  <prot_clashes>  (10) 
1

>  <NBS phar>  (10) 
0.2

>  <NBS_non-phar>  (10) 
0.7970532894134521

>  <NBS>  (10) 
0.9970532894134521

>  <source_stage>  (10) 
scored

>  <source_iter>  (10) 
2

>  <source_parent_mol>  (10) 
0

>  <source_scenario>  (10) 
1 0

>  <source_rank_in_scored_call>  (10) 
4

>  <source_current_task>  (10) 
close_aromatic_ring

>  <scenario>  (10) 
1 0

>  <rotatable_bond_torsions>  (10) 
0,1,3,4

>  <reason_to_skip>  (10) 
incorrect arom ring closing

$$$$

     RDKit          3D

  6  5  0  0  0  0  0  0  0  0999 V2000
  -27.7800   -7.4870  -31.5600 C   0  0  0  0  0  0  0  0  0  0  0  0
  -27.3190   -6.6400  -32.5230 N   0  0  0  0  0  0  0  0  0  0  0  0
  -27.6660   -8.8700  -31.7620 N   0  0  0  0  0  0  0  0  0  0  0  0
  -27.5500   -5.3410  -31.9960 C   0  0  0  0  0  0  0  0  0  0  0  0
  -27.3040   -4.0850  -32.5120 C   0  0  0  0  0  0  0  0  0  0  0  0
  -26.7196   -4.6077  -33.7691 N   0  0  0  0  0  0  0  0  0  0  0  0
  1  2  2  3
  1  3  1  0
  2  4  1  0
  4  5  2  3
  5  6  1  0
M  END
>  <name>  (11) 
Car Nac Nd0 Car Car Nd0

>  <indices>  (11) 
[0, 1, 2]

>  <dummy>  (11) 
2

>  <tasks>  (11) 
probe_placing close_aromatic_ring close_aromatic_ring

>  <current_task>  (11) 
close_aromatic_ring

>  <prot_clashes>  (11) 
1

>  <NBS phar>  (11) 
0.2

>  <NBS_non-phar>  (11) 
0.7970532894134521

>  <NBS>  (11) 
0.9970532894134521

>  <source_stage>  (11) 
scored

>  <source_iter>  (11) 
2

>  <source_parent_mol>  (11) 
0

>  <source_scenario>  (11) 
1 0

>  <source_rank_in_scored_call>  (11) 
4

>  <source_current_task>  (11) 
close_aromatic_ring

>  <scenario>  (11) 
1 0

>  <rotatable_bond_torsions>  (11) 
0,1,3,4

>  <reason_to_skip>  (11) 
bad angles

$$$$

     RDKit          3D

  6  5  0  0  0  0  0  0  0  0999 V2000
  -27.7800   -7.4870  -31.5600 C   0  0  0  0  0  0  0  0  0  0  0  0
  -27.3190   -6.6400  -32.5230 N   0  0  0  0  0  0  0  0  0  0  0  0
  -27.6660   -8.8700  -31.7620 N   0  0  0  0  0  0  0  0  0  0  0  0
  -27.5500   -5.3410  -31.9960 C   0  0  0  0  0  0  0  0  0  0  0  0
  -27.3040   -4.0850  -32.5120 C   0  0  0  0  0  0  0  0  0  0  0  0
    0.0000    0.0000    0.0000 O   0  0  0  0  0  0  0  0  0  0  0  0
  1  2  2  3
  1  3  1  0
  2  4  1  0
  4  5  2  3
  5  6  1  0
M  END
>  <name>  (12) 
Car Nac Nd0 Car Car O_a

>  <indices>  (12) 
[0, 1, 2]

>  <dummy>  (12) 
2

>  <tasks>  (12) 
probe_placing close_aromatic_ring close_aromatic_ring

>  <current_task>  (12) 
close_aromatic_ring

>  <prot_clashes>  (12) 
1

>  <NBS phar>  (12) 
0.2

>  <NBS_non-phar>  (12) 
0.7970532894134521

>  <NBS>  (12) 
0.9970532894134521

>  <source_stage>  (12) 
scored

>  <source_iter>  (12) 
2

>  <source_parent_mol>  (12) 
0

>  <source_scenario>  (12) 
1 0

>  <source_rank_in_scored_call>  (12) 
4

>  <source_current_task>  (12) 
close_aromatic_ring

>  <scenario>  (12) 
1 0

>  <rotatable_bond_torsions>  (12) 
0,1,3,4

>  <reason_to_skip>  (12) 
some_atom_counter_exceeded

$$$$

     RDKit          3D

  6  5  0  0  0  0  0  0  0  0999 V2000
  -27.7800   -7.4870  -31.5600 C   0  0  0  0  0  0  0  0  0  0  0  0
  -27.3190   -6.6400  -32.5230 N   0  0  0  0  0  0  0  0  0  0  0  0
  -27.6660   -8.8700  -31.7620 N   0  0  0  0  0  0  0  0  0  0  0  0
  -27.5500   -5.3410  -31.9960 C   0  0  0  0  0  0  0  0  0  0  0  0
  -27.3040   -4.0850  -32.5120 C   0  0  0  0  0  0  0  0  0  0  0  0
  -26.7023   -4.6750  -33.7654 C   0  0  0  0  0  0  0  0  0  0  0  0
  1  2  2  3
  1  3  1  0
  2  4  1  0
  4  5  2  3
  5  6  1  0
M  END
>  <name>  (13) 
Car Nac Nd0 Car Car Car

>  <indices>  (13) 
[0, 1, 2]

>  <dummy>  (13) 
2

>  <tasks>  (13) 
probe_placing close_aromatic_ring close_aromatic_ring

>  <current_task>  (13) 
close_aromatic_ring

>  <prot_clashes>  (13) 
1

>  <NBS phar>  (13) 
0.2

>  <NBS_non-phar>  (13) 
0.7970532894134521

>  <NBS>  (13) 
0.9970532894134521

>  <source_stage>  (13) 
scored

>  <source_iter>  (13) 
2

>  <source_parent_mol>  (13) 
0

>  <source_scenario>  (13) 
1 0

>  <source_rank_in_scored_call>  (13) 
4

>  <source_current_task>  (13) 
close_aromatic_ring

>  <scenario>  (13) 
1 0

>  <rotatable_bond_torsions>  (13) 
0,1,3,4

>  <reason_to_skip>  (13) 
bad angles

$$$$

     RDKit          3D

  6  5  0  0  0  0  0  0  0  0999 V2000
  -27.7800   -7.4870  -31.5600 C   0  0  0  0  0  0  0  0  0  0  0  0
  -27.3190   -6.6400  -32.5230 N   0  0  0  0  0  0  0  0  0  0  0  0
  -27.6660   -8.8700  -31.7620 N   0  0  0  0  0  0  0  0  0  0  0  0
  -27.5500   -5.3410  -31.9960 C   0  0  0  0  0  0  0  0  0  0  0  0
  -27.3040   -4.0850  -32.5120 C   0  0  0  0  0  0  0  0  0  0  0  0
    0.0000    0.0000    0.0000 S   0  0  0  0  0  0  0  0  0  0  0  0
  1  2  2  3
  1  3  1  0
  2  4  1  0
  4  5  2  3
  5  6  1  0
M  END
>  <name>  (14) 
Car Nac Nd0 Car Car Sul

>  <indices>  (14) 
[0, 1, 2]

>  <dummy>  (14) 
2

>  <tasks>  (14) 
probe_placing close_aromatic_ring close_aromatic_ring

>  <current_task>  (14) 
close_aromatic_ring

>  <prot_clashes>  (14) 
1

>  <NBS phar>  (14) 
0.2

>  <NBS_non-phar>  (14) 
0.7970532894134521

>  <NBS>  (14) 
0.9970532894134521

>  <source_stage>  (14) 
scored

>  <source_iter>  (14) 
2

>  <source_parent_mol>  (14) 
0

>  <source_scenario>  (14) 
1 0

>  <source_rank_in_scored_call>  (14) 
4

>  <source_current_task>  (14) 
close_aromatic_ring

>  <scenario>  (14) 
1 0

>  <rotatable_bond_torsions>  (14) 
0,1,3,4

>  <reason_to_skip>  (14) 
some_atom_counter_exceeded

$$$$

     RDKit          3D

  6  5  0  0  0  0  0  0  0  0999 V2000
  -27.7800   -7.4870  -31.5600 C   0  0  0  0  0  0  0  0  0  0  0  0
  -27.3190   -6.6400  -32.5230 N   0  0  0  0  0  0  0  0  0  0  0  0
  -27.6660   -8.8700  -31.7620 N   0  0  0  0  0  0  0  0  0  0  0  0
  -27.5500   -5.3410  -31.9960 C   0  0  0  0  0  0  0  0  0  0  0  0
  -27.3040   -4.0850  -32.5120 C   0  0  0  0  0  0  0  0  0  0  0  0
  -26.6886   -4.1287  -33.7165 N   0  0  0  0  0  0  0  0  0  0  0  0
  1  2  2  3
  1  3  1  0
  2  4  1  0
  4  5  2  3
  5  6  1  0
M  END
>  <name>  (15) 
Car Nac Nd0 Car Car Nd0

>  <indices>  (15) 
[0, 1, 2]

>  <dummy>  (15) 
2

>  <tasks>  (15) 
probe_placing close_aromatic_ring close_aromatic_ring

>  <current_task>  (15) 
close_aromatic_ring

>  <prot_clashes>  (15) 
1

>  <NBS phar>  (15) 
0.2

>  <NBS_non-phar>  (15) 
0.7970532894134521

>  <NBS>  (15) 
0.9970532894134521

>  <source_stage>  (15) 
scored

>  <source_iter>  (15) 
2

>  <source_parent_mol>  (15) 
0

>  <source_scenario>  (15) 
1 0

>  <source_rank_in_scored_call>  (15) 
4

>  <source_current_task>  (15) 
close_aromatic_ring

>  <scenario>  (15) 
1 0

>  <rotatable_bond_torsions>  (15) 
0,1,3,4

>  <reason_to_skip>  (15) 
incorrect arom ring closing

$$$$

     RDKit          3D

  6  5  0  0  0  0  0  0  0  0999 V2000
  -27.7800   -7.4870  -31.5600 C   0  0  0  0  0  0  0  0  0  0  0  0
  -27.3190   -6.6400  -32.5230 N   0  0  0  0  0  0  0  0  0  0  0  0
  -27.6660   -8.8700  -31.7620 N   0  0  0  0  0  0  0  0  0  0  0  0
  -27.5500   -5.3410  -31.9960 C   0  0  0  0  0  0  0  0  0  0  0  0
  -27.3040   -4.0850  -32.5120 C   0  0  0  0  0  0  0  0  0  0  0  0
  -28.2164   -3.1490  -33.0195 C   0  0  0  0  0  0  0  0  0  0  0  0
  1  2  2  3
  1  3  1  0
  2  4  1  0
  4  5  2  3
  5  6  1  0
M  END
>  <name>  (16) 
Car Nac Nd0 Car Car Car

>  <indices>  (16) 
[0, 1, 2]

>  <dummy>  (16) 
2

>  <tasks>  (16) 
probe_placing close_aromatic_ring close_aromatic_ring

>  <current_task>  (16) 
close_aromatic_ring

>  <prot_clashes>  (16) 
1

>  <NBS phar>  (16) 
0.2

>  <NBS_non-phar>  (16) 
0.7970532894134521

>  <NBS>  (16) 
0.9970532894134521

>  <source_stage>  (16) 
scored

>  <source_iter>  (16) 
2

>  <source_parent_mol>  (16) 
0

>  <source_scenario>  (16) 
1 0

>  <source_rank_in_scored_call>  (16) 
4

>  <source_current_task>  (16) 
close_aromatic_ring

>  <scenario>  (16) 
1 0

>  <rotatable_bond_torsions>  (16) 
0,1,3,4

>  <reason_to_skip>  (16) 
incorrect arom ring closing

$$$$

     RDKit          3D

  6  5  0  0  0  0  0  0  0  0999 V2000
  -27.7800   -7.4870  -31.5600 C   0  0  0  0  0  0  0  0  0  0  0  0
  -27.3190   -6.6400  -32.5230 N   0  0  0  0  0  0  0  0  0  0  0  0
  -27.6660   -8.8700  -31.7620 N   0  0  0  0  0  0  0  0  0  0  0  0
  -27.5500   -5.3410  -31.9960 C   0  0  0  0  0  0  0  0  0  0  0  0
  -27.3040   -4.0850  -32.5120 C   0  0  0  0  0  0  0  0  0  0  0  0
  -26.0313   -3.5249  -32.7717 C   0  0  0  0  0  0  0  0  0  0  0  0
  1  2  2  3
  1  3  1  0
  2  4  1  0
  4  5  2  3
  5  6  1  0
M  END
>  <name>  (17) 
Car Nac Nd0 Car Car Car

>  <indices>  (17) 
[0, 1, 2]

>  <dummy>  (17) 
2

>  <tasks>  (17) 
probe_placing close_aromatic_ring close_aromatic_ring

>  <current_task>  (17) 
close_aromatic_ring

>  <prot_clashes>  (17) 
1

>  <NBS phar>  (17) 
0.2

>  <NBS_non-phar>  (17) 
0.7970532894134521

>  <NBS>  (17) 
0.9970532894134521

>  <source_stage>  (17) 
scored

>  <source_iter>  (17) 
2

>  <source_parent_mol>  (17) 
0

>  <source_scenario>  (17) 
1 0

>  <source_rank_in_scored_call>  (17) 
4

>  <source_current_task>  (17) 
close_aromatic_ring

>  <scenario>  (17) 
1 0

>  <rotatable_bond_torsions>  (17) 
0,1,3,4

>  <reason_to_skip>  (17) 
incorrect arom ring closing

$$$$

     RDKit          3D

  6  5  0  0  0  0  0  0  0  0999 V2000
  -27.7800   -7.4870  -31.5600 C   0  0  0  0  0  0  0  0  0  0  0  0
  -27.3190   -6.6400  -32.5230 N   0  0  0  0  0  0  0  0  0  0  0  0
  -27.6660   -8.8700  -31.7620 N   0  0  0  0  0  0  0  0  0  0  0  0
  -27.5500   -5.3410  -31.9960 C   0  0  0  0  0  0  0  0  0  0  0  0
  -27.3040   -4.0850  -32.5120 C   0  0  0  0  0  0  0  0  0  0  0  0
    0.0000    0.0000    0.0000 O   0  0  0  0  0  0  0  0  0  0  0  0
  1  2  2  3
  1  3  1  0
  2  4  1  0
  4  5  2  3
  5  6  1  0
M  END
>  <name>  (18) 
Car Nac Nd0 Car Car O_a

>  <indices>  (18) 
[0, 1, 2]

>  <dummy>  (18) 
2

>  <tasks>  (18) 
probe_placing close_aromatic_ring close_aromatic_ring

>  <current_task>  (18) 
close_aromatic_ring

>  <prot_clashes>  (18) 
1

>  <NBS phar>  (18) 
0.2

>  <NBS_non-phar>  (18) 
0.7970532894134521

>  <NBS>  (18) 
0.9970532894134521

>  <source_stage>  (18) 
scored

>  <source_iter>  (18) 
2

>  <source_parent_mol>  (18) 
0

>  <source_scenario>  (18) 
1 0

>  <source_rank_in_scored_call>  (18) 
4

>  <source_current_task>  (18) 
close_aromatic_ring

>  <scenario>  (18) 
1 0

>  <rotatable_bond_torsions>  (18) 
0,1,3,4

>  <reason_to_skip>  (18) 
some_atom_counter_exceeded

$$$$

     RDKit          3D

  6  5  0  0  0  0  0  0  0  0999 V2000
  -27.7800   -7.4870  -31.5600 C   0  0  0  0  0  0  0  0  0  0  0  0
  -27.3190   -6.6400  -32.5230 N   0  0  0  0  0  0  0  0  0  0  0  0
  -27.6660   -8.8700  -31.7620 N   0  0  0  0  0  0  0  0  0  0  0  0
  -27.5500   -5.3410  -31.9960 C   0  0  0  0  0  0  0  0  0  0  0  0
  -27.3040   -4.0850  -32.5120 C   0  0  0  0  0  0  0  0  0  0  0  0
  -27.4342   -2.8617  -32.1795 N   0  0  0  0  0  0  0  0  0  0  0  0
  1  2  2  3
  1  3  1  0
  2  4  1  0
  4  5  2  3
  5  6  1  0
M  END
>  <name>  (19) 
Car Nac Nd0 Car Car Nd0

>  <indices>  (19) 
[0, 1, 2]

>  <dummy>  (19) 
2

>  <tasks>  (19) 
probe_placing close_aromatic_ring close_aromatic_ring

>  <current_task>  (19) 
close_aromatic_ring

>  <prot_clashes>  (19) 
1

>  <NBS phar>  (19) 
0.2

>  <NBS_non-phar>  (19) 
0.7970532894134521

>  <NBS>  (19) 
0.9970532894134521

>  <source_stage>  (19) 
scored

>  <source_iter>  (19) 
2

>  <source_parent_mol>  (19) 
0

>  <source_scenario>  (19) 
1 0

>  <source_rank_in_scored_call>  (19) 
4

>  <source_current_task>  (19) 
close_aromatic_ring

>  <scenario>  (19) 
1 0

>  <rotatable_bond_torsions>  (19) 
0,1,3,4

>  <reason_to_skip>  (19) 
bad angles

$$$$

     RDKit          3D

  6  5  0  0  0  0  0  0  0  0999 V2000
  -27.7800   -7.4870  -31.5600 C   0  0  0  0  0  0  0  0  0  0  0  0
  -27.3190   -6.6400  -32.5230 N   0  0  0  0  0  0  0  0  0  0  0  0
  -27.6660   -8.8700  -31.7620 N   0  0  0  0  0  0  0  0  0  0  0  0
  -27.5500   -5.3410  -31.9960 C   0  0  0  0  0  0  0  0  0  0  0  0
  -27.3040   -4.0850  -32.5120 C   0  0  0  0  0  0  0  0  0  0  0  0
  -27.9890   -2.9667  -32.2880 C   0  0  0  0  0  0  0  0  0  0  0  0
  1  2  2  3
  1  3  1  0
  2  4  1  0
  4  5  2  3
  5  6  1  0
M  END
>  <name>  (20) 
Car Nac Nd0 Car Car Car

>  <indices>  (20) 
[0, 1, 2]

>  <dummy>  (20) 
2

>  <tasks>  (20) 
probe_placing close_aromatic_ring close_aromatic_ring

>  <current_task>  (20) 
close_aromatic_ring

>  <prot_clashes>  (20) 
1

>  <NBS phar>  (20) 
0.2

>  <NBS_non-phar>  (20) 
0.7970532894134521

>  <NBS>  (20) 
0.9970532894134521

>  <source_stage>  (20) 
scored

>  <source_iter>  (20) 
2

>  <source_parent_mol>  (20) 
0

>  <source_scenario>  (20) 
1 0

>  <source_rank_in_scored_call>  (20) 
4

>  <source_current_task>  (20) 
close_aromatic_ring

>  <scenario>  (20) 
1 0

>  <rotatable_bond_torsions>  (20) 
0,1,3,4

>  <reason_to_skip>  (20) 
incorrect arom ring closing

$$$$

     RDKit          3D

  6  5  0  0  0  0  0  0  0  0999 V2000
  -27.7800   -7.4870  -31.5600 C   0  0  0  0  0  0  0  0  0  0  0  0
  -27.3190   -6.6400  -32.5230 N   0  0  0  0  0  0  0  0  0  0  0  0
  -27.6660   -8.8700  -31.7620 N   0  0  0  0  0  0  0  0  0  0  0  0
  -27.5500   -5.3410  -31.9960 C   0  0  0  0  0  0  0  0  0  0  0  0
  -27.3040   -4.0850  -32.5120 C   0  0  0  0  0  0  0  0  0  0  0  0
    0.0000    0.0000    0.0000 O   0  0  0  0  0  0  0  0  0  0  0  0
  1  2  2  3
  1  3  1  0
  2  4  1  0
  4  5  2  3
  5  6  1  0
M  END
>  <name>  (21) 
Car Nac Nd0 Car Car O_a

>  <indices>  (21) 
[0, 1, 2]

>  <dummy>  (21) 
2

>  <tasks>  (21) 
probe_placing close_aromatic_ring close_aromatic_ring

>  <current_task>  (21) 
close_aromatic_ring

>  <prot_clashes>  (21) 
1

>  <NBS phar>  (21) 
0.2

>  <NBS_non-phar>  (21) 
0.7970532894134521

>  <NBS>  (21) 
0.9970532894134521

>  <source_stage>  (21) 
scored

>  <source_iter>  (21) 
2

>  <source_parent_mol>  (21) 
0

>  <source_scenario>  (21) 
1 0

>  <source_rank_in_scored_call>  (21) 
4

>  <source_current_task>  (21) 
close_aromatic_ring

>  <scenario>  (21) 
1 0

>  <rotatable_bond_torsions>  (21) 
0,1,3,4

>  <reason_to_skip>  (21) 
some_atom_counter_exceeded

$$$$

     RDKit          3D

  6  5  0  0  0  0  0  0  0  0999 V2000
  -27.7800   -7.4870  -31.5600 C   0  0  0  0  0  0  0  0  0  0  0  0
  -27.3190   -6.6400  -32.5230 N   0  0  0  0  0  0  0  0  0  0  0  0
  -27.6660   -8.8700  -31.7620 N   0  0  0  0  0  0  0  0  0  0  0  0
  -27.5500   -5.3410  -31.9960 C   0  0  0  0  0  0  0  0  0  0  0  0
  -27.3040   -4.0850  -32.5120 C   0  0  0  0  0  0  0  0  0  0  0  0
  -27.5695   -2.9639  -31.9416 N   0  0  0  0  0  0  0  0  0  0  0  0
  1  2  2  3
  1  3  1  0
  2  4  1  0
  4  5  2  3
  5  6  1  0
M  END
>  <name>  (22) 
Car Nac Nd0 Car Car Nd0

>  <indices>  (22) 
[0, 1, 2]

>  <dummy>  (22) 
2

>  <tasks>  (22) 
probe_placing close_aromatic_ring close_aromatic_ring

>  <current_task>  (22) 
close_aromatic_ring

>  <prot_clashes>  (22) 
1

>  <NBS phar>  (22) 
0.2

>  <NBS_non-phar>  (22) 
0.7970532894134521

>  <NBS>  (22) 
0.9970532894134521

>  <source_stage>  (22) 
scored

>  <source_iter>  (22) 
2

>  <source_parent_mol>  (22) 
0

>  <source_scenario>  (22) 
1 0

>  <source_rank_in_scored_call>  (22) 
4

>  <source_current_task>  (22) 
close_aromatic_ring

>  <scenario>  (22) 
1 0

>  <rotatable_bond_torsions>  (22) 
0,1,3,4

>  <reason_to_skip>  (22) 
incorrect arom ring closing

$$$$

     RDKit          3D

  6  5  0  0  0  0  0  0  0  0999 V2000
  -27.7800   -7.4870  -31.5600 C   0  0  0  0  0  0  0  0  0  0  0  0
  -27.3190   -6.6400  -32.5230 N   0  0  0  0  0  0  0  0  0  0  0  0
  -27.6660   -8.8700  -31.7620 N   0  0  0  0  0  0  0  0  0  0  0  0
  -27.5500   -5.3410  -31.9960 C   0  0  0  0  0  0  0  0  0  0  0  0
  -27.3040   -4.0850  -32.5120 C   0  0  0  0  0  0  0  0  0  0  0  0
    0.0000    0.0000    0.0000 O   0  0  0  0  0  0  0  0  0  0  0  0
  1  2  2  3
  1  3  1  0
  2  4  1  0
  4  5  2  3
  5  6  1  0
M  END
>  <name>  (23) 
Car Nac Nd0 Car Car O_a

>  <indices>  (23) 
[0, 1, 2]

>  <dummy>  (23) 
2

>  <tasks>  (23) 
probe_placing close_aromatic_ring close_aromatic_ring

>  <current_task>  (23) 
close_aromatic_ring

>  <prot_clashes>  (23) 
1

>  <NBS phar>  (23) 
0.2

>  <NBS_non-phar>  (23) 
0.7970532894134521

>  <NBS>  (23) 
0.9970532894134521

>  <source_stage>  (23) 
scored

>  <source_iter>  (23) 
2

>  <source_parent_mol>  (23) 
0

>  <source_scenario>  (23) 
1 0

>  <source_rank_in_scored_call>  (23) 
4

>  <source_current_task>  (23) 
close_aromatic_ring

>  <scenario>  (23) 
1 0

>  <rotatable_bond_torsions>  (23) 
0,1,3,4

>  <reason_to_skip>  (23) 
some_atom_counter_exceeded

$$$$

     RDKit          3D

  6  5  0  0  0  0  0  0  0  0999 V2000
  -27.7800   -7.4870  -31.5600 C   0  0  0  0  0  0  0  0  0  0  0  0
  -27.3190   -6.6400  -32.5230 N   0  0  0  0  0  0  0  0  0  0  0  0
  -27.6660   -8.8700  -31.7620 N   0  0  0  0  0  0  0  0  0  0  0  0
  -27.5500   -5.3410  -31.9960 C   0  0  0  0  0  0  0  0  0  0  0  0
  -27.3040   -4.0850  -32.5120 C   0  0  0  0  0  0  0  0  0  0  0  0
    0.0000    0.0000    0.0000 O   0  0  0  0  0  0  0  0  0  0  0  0
  1  2  2  3
  1  3  1  0
  2  4  1  0
  4  5  2  3
  5  6  1  0
M  END
>  <name>  (24) 
Car Nac Nd0 Car Car O_a

>  <indices>  (24) 
[0, 1, 2]

>  <dummy>  (24) 
2

>  <tasks>  (24) 
probe_placing close_aromatic_ring close_aromatic_ring

>  <current_task>  (24) 
close_aromatic_ring

>  <prot_clashes>  (24) 
1

>  <NBS phar>  (24) 
0.2

>  <NBS_non-phar>  (24) 
0.7970532894134521

>  <NBS>  (24) 
0.9970532894134521

>  <source_stage>  (24) 
scored

>  <source_iter>  (24) 
2

>  <source_parent_mol>  (24) 
0

>  <source_scenario>  (24) 
1 0

>  <source_rank_in_scored_call>  (24) 
4

>  <source_current_task>  (24) 
close_aromatic_ring

>  <scenario>  (24) 
1 0

>  <rotatable_bond_torsions>  (24) 
0,1,3,4

>  <reason_to_skip>  (24) 
some_atom_counter_exceeded

$$$$

     RDKit          3D

  6  5  0  0  0  0  0  0  0  0999 V2000
  -27.7800   -7.4870  -31.5600 C   0  0  0  0  0  0  0  0  0  0  0  0
  -27.3190   -6.6400  -32.5230 N   0  0  0  0  0  0  0  0  0  0  0  0
  -27.6660   -8.8700  -31.7620 N   0  0  0  0  0  0  0  0  0  0  0  0
  -27.5500   -5.3410  -31.9960 C   0  0  0  0  0  0  0  0  0  0  0  0
  -27.3040   -4.0850  -32.5120 C   0  0  0  0  0  0  0  0  0  0  0  0
  -27.3211   -2.9327  -31.9557 N   0  0  0  0  0  0  0  0  0  0  0  0
  1  2  2  3
  1  3  1  0
  2  4  1  0
  4  5  2  3
  5  6  1  0
M  END
>  <name>  (25) 
Car Nac Nd0 Car Car Nac

>  <indices>  (25) 
[0, 1, 2]

>  <dummy>  (25) 
2

>  <tasks>  (25) 
probe_placing close_aromatic_ring close_aromatic_ring

>  <current_task>  (25) 
close_aromatic_ring

>  <prot_clashes>  (25) 
1

>  <NBS phar>  (25) 
0.2

>  <NBS_non-phar>  (25) 
0.7970532894134521

>  <NBS>  (25) 
0.9970532894134521

>  <source_stage>  (25) 
scored

>  <source_iter>  (25) 
2

>  <source_parent_mol>  (25) 
0

>  <source_scenario>  (25) 
1 0

>  <source_rank_in_scored_call>  (25) 
4

>  <source_current_task>  (25) 
close_aromatic_ring

>  <scenario>  (25) 
1 0

>  <rotatable_bond_torsions>  (25) 
0,1,3,4

>  <reason_to_skip>  (25) 
incorrect arom ring closing

$$$$

     RDKit          3D

  6  5  0  0  0  0  0  0  0  0999 V2000
  -27.7800   -7.4870  -31.5600 C   0  0  0  0  0  0  0  0  0  0  0  0
  -27.3190   -6.6400  -32.5230 N   0  0  0  0  0  0  0  0  0  0  0  0
  -27.6660   -8.8700  -31.7620 N   0  0  0  0  0  0  0  0  0  0  0  0
  -27.5500   -5.3410  -31.9960 C   0  0  0  0  0  0  0  0  0  0  0  0
  -27.3040   -4.0850  -32.5120 C   0  0  0  0  0  0  0  0  0  0  0  0
  -26.2300   -3.2868  -32.2350 N   0  0  0  0  0  0  0  0  0  0  0  0
  1  2  2  3
  1  3  1  0
  2  4  1  0
  4  5  2  3
  5  6  1  0
M  END
>  <name>  (26) 
Car Nac Nd0 Car Car Nac

>  <indices>  (26) 
[0, 1, 2]

>  <dummy>  (26) 
2

>  <tasks>  (26) 
probe_placing close_aromatic_ring close_aromatic_ring

>  <current_task>  (26) 
close_aromatic_ring

>  <prot_clashes>  (26) 
1

>  <NBS phar>  (26) 
0.2

>  <NBS_non-phar>  (26) 
0.7970532894134521

>  <NBS>  (26) 
0.9970532894134521

>  <source_stage>  (26) 
scored

>  <source_iter>  (26) 
2

>  <source_parent_mol>  (26) 
0

>  <source_scenario>  (26) 
1 0

>  <source_rank_in_scored_call>  (26) 
4

>  <source_current_task>  (26) 
close_aromatic_ring

>  <scenario>  (26) 
1 0

>  <rotatable_bond_torsions>  (26) 
0,1,3,4

>  <reason_to_skip>  (26) 
incorrect arom ring closing

$$$$

     RDKit          3D

  6  5  0  0  0  0  0  0  0  0999 V2000
  -27.7800   -7.4870  -31.5600 C   0  0  0  0  0  0  0  0  0  0  0  0
  -27.3190   -6.6400  -32.5230 N   0  0  0  0  0  0  0  0  0  0  0  0
  -27.6660   -8.8700  -31.7620 N   0  0  0  0  0  0  0  0  0  0  0  0
  -27.5500   -5.3410  -31.9960 C   0  0  0  0  0  0  0  0  0  0  0  0
  -27.3040   -4.0850  -32.5120 C   0  0  0  0  0  0  0  0  0  0  0  0
    0.0000    0.0000    0.0000 S   0  0  0  0  0  0  0  0  0  0  0  0
  1  2  2  3
  1  3  1  0
  2  4  1  0
  4  5  2  3
  5  6  1  0
M  END
>  <name>  (27) 
Car Nac Nd0 Car Car Sul

>  <indices>  (27) 
[0, 1, 2]

>  <dummy>  (27) 
2

>  <tasks>  (27) 
probe_placing close_aromatic_ring close_aromatic_ring

>  <current_task>  (27) 
close_aromatic_ring

>  <prot_clashes>  (27) 
1

>  <NBS phar>  (27) 
0.2

>  <NBS_non-phar>  (27) 
0.7970532894134521

>  <NBS>  (27) 
0.9970532894134521

>  <source_stage>  (27) 
scored

>  <source_iter>  (27) 
2

>  <source_parent_mol>  (27) 
0

>  <source_scenario>  (27) 
1 0

>  <source_rank_in_scored_call>  (27) 
4

>  <source_current_task>  (27) 
close_aromatic_ring

>  <scenario>  (27) 
1 0

>  <rotatable_bond_torsions>  (27) 
0,1,3,4

>  <reason_to_skip>  (27) 
some_atom_counter_exceeded

$$$$

     RDKit          3D

  6  5  0  0  0  0  0  0  0  0999 V2000
  -27.7800   -7.4870  -31.5600 C   0  0  0  0  0  0  0  0  0  0  0  0
  -27.3190   -6.6400  -32.5230 N   0  0  0  0  0  0  0  0  0  0  0  0
  -27.6660   -8.8700  -31.7620 N   0  0  0  0  0  0  0  0  0  0  0  0
  -27.5500   -5.3410  -31.9960 C   0  0  0  0  0  0  0  0  0  0  0  0
  -27.3040   -4.0850  -32.5120 C   0  0  0  0  0  0  0  0  0  0  0  0
    0.0000    0.0000    0.0000 S   0  0  0  0  0  0  0  0  0  0  0  0
  1  2  2  3
  1  3  1  0
  2  4  1  0
  4  5  2  3
  5  6  1  0
M  END
>  <name>  (28) 
Car Nac Nd0 Car Car Sul

>  <indices>  (28) 
[0, 1, 2]

>  <dummy>  (28) 
2

>  <tasks>  (28) 
probe_placing close_aromatic_ring close_aromatic_ring

>  <current_task>  (28) 
close_aromatic_ring

>  <prot_clashes>  (28) 
1

>  <NBS phar>  (28) 
0.2

>  <NBS_non-phar>  (28) 
0.7970532894134521

>  <NBS>  (28) 
0.9970532894134521

>  <source_stage>  (28) 
scored

>  <source_iter>  (28) 
2

>  <source_parent_mol>  (28) 
0

>  <source_scenario>  (28) 
1 0

>  <source_rank_in_scored_call>  (28) 
4

>  <source_current_task>  (28) 
close_aromatic_ring

>  <scenario>  (28) 
1 0

>  <rotatable_bond_torsions>  (28) 
0,1,3,4

>  <reason_to_skip>  (28) 
some_atom_counter_exceeded

$$$$

     RDKit          3D

  6  5  0  0  0  0  0  0  0  0999 V2000
  -27.7800   -7.4870  -31.5600 C   0  0  0  0  0  0  0  0  0  0  0  0
  -27.3190   -6.6400  -32.5230 N   0  0  0  0  0  0  0  0  0  0  0  0
  -27.6660   -8.8700  -31.7620 N   0  0  0  0  0  0  0  0  0  0  0  0
  -27.5500   -5.3410  -31.9960 C   0  0  0  0  0  0  0  0  0  0  0  0
  -27.3040   -4.0850  -32.5120 C   0  0  0  0  0  0  0  0  0  0  0  0
    0.0000    0.0000    0.0000 O   0  0  0  0  0  0  0  0  0  0  0  0
  1  2  2  3
  1  3  1  0
  2  4  1  0
  4  5  2  3
  5  6  1  0
M  END
>  <name>  (29) 
Car Nac Nd0 Car Car O_a

>  <indices>  (29) 
[0, 1, 2]

>  <dummy>  (29) 
2

>  <tasks>  (29) 
probe_placing close_aromatic_ring close_aromatic_ring

>  <current_task>  (29) 
close_aromatic_ring

>  <prot_clashes>  (29) 
1

>  <NBS phar>  (29) 
0.2

>  <NBS_non-phar>  (29) 
0.7970532894134521

>  <NBS>  (29) 
0.9970532894134521

>  <source_stage>  (29) 
scored

>  <source_iter>  (29) 
2

>  <source_parent_mol>  (29) 
0

>  <source_scenario>  (29) 
1 0

>  <source_rank_in_scored_call>  (29) 
4

>  <source_current_task>  (29) 
close_aromatic_ring

>  <scenario>  (29) 
1 0

>  <rotatable_bond_torsions>  (29) 
0,1,3,4

>  <reason_to_skip>  (29) 
some_atom_counter_exceeded

$$$$

     RDKit          3D

  6  5  0  0  0  0  0  0  0  0999 V2000
  -27.7800   -7.4870  -31.5600 C   0  0  0  0  0  0  0  0  0  0  0  0
  -27.3190   -6.6400  -32.5230 N   0  0  0  0  0  0  0  0  0  0  0  0
  -27.6660   -8.8700  -31.7620 N   0  0  0  0  0  0  0  0  0  0  0  0
  -27.5500   -5.3410  -31.9960 C   0  0  0  0  0  0  0  0  0  0  0  0
  -27.3040   -4.0850  -32.5120 C   0  0  0  0  0  0  0  0  0  0  0  0
  -26.5315   -3.9073  -33.6413 N   0  0  0  0  0  0  0  0  0  0  0  0
  1  2  2  3
  1  3  1  0
  2  4  1  0
  4  5  2  3
  5  6  1  0
M  END
>  <name>  (30) 
Car Nac Nd0 Car Car Nac

>  <indices>  (30) 
[0, 1, 2]

>  <dummy>  (30) 
2

>  <tasks>  (30) 
probe_placing close_aromatic_ring close_aromatic_ring

>  <current_task>  (30) 
close_aromatic_ring

>  <prot_clashes>  (30) 
1

>  <NBS phar>  (30) 
0.2

>  <NBS_non-phar>  (30) 
0.7970532894134521

>  <NBS>  (30) 
0.9970532894134521

>  <source_stage>  (30) 
scored

>  <source_iter>  (30) 
2

>  <source_parent_mol>  (30) 
0

>  <source_scenario>  (30) 
1 0

>  <source_rank_in_scored_call>  (30) 
4

>  <source_current_task>  (30) 
close_aromatic_ring

>  <scenario>  (30) 
1 0

>  <rotatable_bond_torsions>  (30) 
0,1,3,4

>  <reason_to_skip>  (30) 
incorrect arom ring closing

$$$$

     RDKit          3D

  6  5  0  0  0  0  0  0  0  0999 V2000
  -27.7800   -7.4870  -31.5600 C   0  0  0  0  0  0  0  0  0  0  0  0
  -27.3190   -6.6400  -32.5230 N   0  0  0  0  0  0  0  0  0  0  0  0
  -27.6660   -8.8700  -31.7620 N   0  0  0  0  0  0  0  0  0  0  0  0
  -27.5500   -5.3410  -31.9960 C   0  0  0  0  0  0  0  0  0  0  0  0
  -27.3040   -4.0850  -32.5120 C   0  0  0  0  0  0  0  0  0  0  0  0
    0.0000    0.0000    0.0000 S   0  0  0  0  0  0  0  0  0  0  0  0
  1  2  2  3
  1  3  1  0
  2  4  1  0
  4  5  2  3
  5  6  1  0
M  END
>  <name>  (31) 
Car Nac Nd0 Car Car Sul

>  <indices>  (31) 
[0, 1, 2]

>  <dummy>  (31) 
2

>  <tasks>  (31) 
probe_placing close_aromatic_ring close_aromatic_ring

>  <current_task>  (31) 
close_aromatic_ring

>  <prot_clashes>  (31) 
1

>  <NBS phar>  (31) 
0.2

>  <NBS_non-phar>  (31) 
0.7970532894134521

>  <NBS>  (31) 
0.9970532894134521

>  <source_stage>  (31) 
scored

>  <source_iter>  (31) 
2

>  <source_parent_mol>  (31) 
0

>  <source_scenario>  (31) 
1 0

>  <source_rank_in_scored_call>  (31) 
4

>  <source_current_task>  (31) 
close_aromatic_ring

>  <scenario>  (31) 
1 0

>  <rotatable_bond_torsions>  (31) 
0,1,3,4

>  <reason_to_skip>  (31) 
some_atom_counter_exceeded

$$$$

     RDKit          3D

  6  5  0  0  0  0  0  0  0  0999 V2000
  -27.7800   -7.4870  -31.5600 C   0  0  0  0  0  0  0  0  0  0  0  0
  -27.3190   -6.6400  -32.5230 N   0  0  0  0  0  0  0  0  0  0  0  0
  -27.6660   -8.8700  -31.7620 N   0  0  0  0  0  0  0  0  0  0  0  0
  -27.5500   -5.3410  -31.9960 C   0  0  0  0  0  0  0  0  0  0  0  0
  -27.3040   -4.0850  -32.5120 C   0  0  0  0  0  0  0  0  0  0  0  0
    0.0000    0.0000    0.0000 O   0  0  0  0  0  0  0  0  0  0  0  0
  1  2  2  3
  1  3  1  0
  2  4  1  0
  4  5  2  3
  5  6  1  0
M  END
>  <name>  (32) 
Car Nac Nd0 Car Car O_a

>  <indices>  (32) 
[0, 1, 2]

>  <dummy>  (32) 
2

>  <tasks>  (32) 
probe_placing close_aromatic_ring close_aromatic_ring

>  <current_task>  (32) 
close_aromatic_ring

>  <prot_clashes>  (32) 
1

>  <NBS phar>  (32) 
0.2

>  <NBS_non-phar>  (32) 
0.7970532894134521

>  <NBS>  (32) 
0.9970532894134521

>  <source_stage>  (32) 
scored

>  <source_iter>  (32) 
2

>  <source_parent_mol>  (32) 
0

>  <source_scenario>  (32) 
1 0

>  <source_rank_in_scored_call>  (32) 
4

>  <source_current_task>  (32) 
close_aromatic_ring

>  <scenario>  (32) 
1 0

>  <rotatable_bond_torsions>  (32) 
0,1,3,4

>  <reason_to_skip>  (32) 
some_atom_counter_exceeded

$$$$

     RDKit          3D

  6  5  0  0  0  0  0  0  0  0999 V2000
  -27.7800   -7.4870  -31.5600 C   0  0  0  0  0  0  0  0  0  0  0  0
  -27.3190   -6.6400  -32.5230 N   0  0  0  0  0  0  0  0  0  0  0  0
  -27.6660   -8.8700  -31.7620 N   0  0  0  0  0  0  0  0  0  0  0  0
  -27.5500   -5.3410  -31.9960 C   0  0  0  0  0  0  0  0  0  0  0  0
  -27.3040   -4.0850  -32.5120 C   0  0  0  0  0  0  0  0  0  0  0  0
    0.0000    0.0000    0.0000 S   0  0  0  0  0  0  0  0  0  0  0  0
  1  2  2  3
  1  3  1  0
  2  4  1  0
  4  5  2  3
  5  6  1  0
M  END
>  <name>  (33) 
Car Nac Nd0 Car Car Sul

>  <indices>  (33) 
[0, 1, 2]

>  <dummy>  (33) 
2

>  <tasks>  (33) 
probe_placing close_aromatic_ring close_aromatic_ring

>  <current_task>  (33) 
close_aromatic_ring

>  <prot_clashes>  (33) 
1

>  <NBS phar>  (33) 
0.2

>  <NBS_non-phar>  (33) 
0.7970532894134521

>  <NBS>  (33) 
0.9970532894134521

>  <source_stage>  (33) 
scored

>  <source_iter>  (33) 
2

>  <source_parent_mol>  (33) 
0

>  <source_scenario>  (33) 
1 0

>  <source_rank_in_scored_call>  (33) 
4

>  <source_current_task>  (33) 
close_aromatic_ring

>  <scenario>  (33) 
1 0

>  <rotatable_bond_torsions>  (33) 
0,1,3,4

>  <reason_to_skip>  (33) 
some_atom_counter_exceeded

$$$$

     RDKit          3D

  6  5  0  0  0  0  0  0  0  0999 V2000
  -27.7800   -7.4870  -31.5600 C   0  0  0  0  0  0  0  0  0  0  0  0
  -27.3190   -6.6400  -32.5230 N   0  0  0  0  0  0  0  0  0  0  0  0
  -27.6660   -8.8700  -31.7620 N   0  0  0  0  0  0  0  0  0  0  0  0
  -27.5500   -5.3410  -31.9960 C   0  0  0  0  0  0  0  0  0  0  0  0
  -27.3040   -4.0850  -32.5120 C   0  0  0  0  0  0  0  0  0  0  0  0
    0.0000    0.0000    0.0000 S   0  0  0  0  0  0  0  0  0  0  0  0
  1  2  2  3
  1  3  1  0
  2  4  1  0
  4  5  2  3
  5  6  1  0
M  END
>  <name>  (34) 
Car Nac Nd0 Car Car Sul

>  <indices>  (34) 
[0, 1, 2]

>  <dummy>  (34) 
2

>  <tasks>  (34) 
probe_placing close_aromatic_ring close_aromatic_ring

>  <current_task>  (34) 
close_aromatic_ring

>  <prot_clashes>  (34) 
1

>  <NBS phar>  (34) 
0.2

>  <NBS_non-phar>  (34) 
0.7970532894134521

>  <NBS>  (34) 
0.9970532894134521

>  <source_stage>  (34) 
scored

>  <source_iter>  (34) 
2

>  <source_parent_mol>  (34) 
0

>  <source_scenario>  (34) 
1 0

>  <source_rank_in_scored_call>  (34) 
4

>  <source_current_task>  (34) 
close_aromatic_ring

>  <scenario>  (34) 
1 0

>  <rotatable_bond_torsions>  (34) 
0,1,3,4

>  <reason_to_skip>  (34) 
some_atom_counter_exceeded

$$$$

     RDKit          3D

  6  5  0  0  0  0  0  0  0  0999 V2000
  -27.7800   -7.4870  -31.5600 C   0  0  0  0  0  0  0  0  0  0  0  0
  -27.3190   -6.6400  -32.5230 N   0  0  0  0  0  0  0  0  0  0  0  0
  -27.6660   -8.8700  -31.7620 N   0  0  0  0  0  0  0  0  0  0  0  0
  -27.5500   -5.3410  -31.9960 C   0  0  0  0  0  0  0  0  0  0  0  0
  -27.3040   -4.0850  -32.5120 C   0  0  0  0  0  0  0  0  0  0  0  0
  -28.0750   -3.5855  -33.6406 C   0  0  0  0  0  0  0  0  0  0  0  0
  1  2  2  3
  1  3  1  0
  2  4  1  0
  4  5  2  3
  5  6  1  0
M  END
>  <name>  (35) 
Car Nac Nd0 Car Car Car

>  <indices>  (35) 
[0, 1, 2]

>  <dummy>  (35) 
2

>  <tasks>  (35) 
probe_placing close_aromatic_ring close_aromatic_ring

>  <current_task>  (35) 
close_aromatic_ring

>  <prot_clashes>  (35) 
1

>  <NBS phar>  (35) 
0.2

>  <NBS_non-phar>  (35) 
0.7970532894134521

>  <NBS>  (35) 
0.9970532894134521

>  <source_stage>  (35) 
scored

>  <source_iter>  (35) 
2

>  <source_parent_mol>  (35) 
0

>  <source_scenario>  (35) 
1 0

>  <source_rank_in_scored_call>  (35) 
4

>  <source_current_task>  (35) 
close_aromatic_ring

>  <scenario>  (35) 
1 0

>  <rotatable_bond_torsions>  (35) 
0,1,3,4

>  <reason_to_skip>  (35) 
incorrect arom ring closing

$$$$

     RDKit          3D

  6  5  0  0  0  0  0  0  0  0999 V2000
  -27.7800   -7.4870  -31.5600 C   0  0  0  0  0  0  0  0  0  0  0  0
  -27.3190   -6.6400  -32.5230 N   0  0  0  0  0  0  0  0  0  0  0  0
  -27.6660   -8.8700  -31.7620 N   0  0  0  0  0  0  0  0  0  0  0  0
  -27.5500   -5.3410  -31.9960 C   0  0  0  0  0  0  0  0  0  0  0  0
  -27.3040   -4.0850  -32.5120 C   0  0  0  0  0  0  0  0  0  0  0  0
    0.0000    0.0000    0.0000 O   0  0  0  0  0  0  0  0  0  0  0  0
  1  2  2  3
  1  3  1  0
  2  4  1  0
  4  5  2  3
  5  6  1  0
M  END
>  <name>  (36) 
Car Nac Nd0 Car Car O_a

>  <indices>  (36) 
[0, 1, 2]

>  <dummy>  (36) 
2

>  <tasks>  (36) 
probe_placing close_aromatic_ring close_aromatic_ring

>  <current_task>  (36) 
close_aromatic_ring

>  <prot_clashes>  (36) 
1

>  <NBS phar>  (36) 
0.2

>  <NBS_non-phar>  (36) 
0.7970532894134521

>  <NBS>  (36) 
0.9970532894134521

>  <source_stage>  (36) 
scored

>  <source_iter>  (36) 
2

>  <source_parent_mol>  (36) 
0

>  <source_scenario>  (36) 
1 0

>  <source_rank_in_scored_call>  (36) 
4

>  <source_current_task>  (36) 
close_aromatic_ring

>  <scenario>  (36) 
1 0

>  <rotatable_bond_torsions>  (36) 
0,1,3,4

>  <reason_to_skip>  (36) 
some_atom_counter_exceeded

$$$$

     RDKit          3D

  6  5  0  0  0  0  0  0  0  0999 V2000
  -27.7800   -7.4870  -31.5600 C   0  0  0  0  0  0  0  0  0  0  0  0
  -27.3190   -6.6400  -32.5230 N   0  0  0  0  0  0  0  0  0  0  0  0
  -27.6660   -8.8700  -31.7620 N   0  0  0  0  0  0  0  0  0  0  0  0
  -27.5500   -5.3410  -31.9960 C   0  0  0  0  0  0  0  0  0  0  0  0
  -27.3040   -4.0850  -32.5120 C   0  0  0  0  0  0  0  0  0  0  0  0
    0.0000    0.0000    0.0000 S   0  0  0  0  0  0  0  0  0  0  0  0
  1  2  2  3
  1  3  1  0
  2  4  1  0
  4  5  2  3
  5  6  1  0
M  END
>  <name>  (37) 
Car Nac Nd0 Car Car Sul

>  <indices>  (37) 
[0, 1, 2]

>  <dummy>  (37) 
2

>  <tasks>  (37) 
probe_placing close_aromatic_ring close_aromatic_ring

>  <current_task>  (37) 
close_aromatic_ring

>  <prot_clashes>  (37) 
1

>  <NBS phar>  (37) 
0.2

>  <NBS_non-phar>  (37) 
0.7970532894134521

>  <NBS>  (37) 
0.9970532894134521

>  <source_stage>  (37) 
scored

>  <source_iter>  (37) 
2

>  <source_parent_mol>  (37) 
0

>  <source_scenario>  (37) 
1 0

>  <source_rank_in_scored_call>  (37) 
4

>  <source_current_task>  (37) 
close_aromatic_ring

>  <scenario>  (37) 
1 0

>  <rotatable_bond_torsions>  (37) 
0,1,3,4

>  <reason_to_skip>  (37) 
some_atom_counter_exceeded

$$$$

     RDKit          3D

  6  5  0  0  0  0  0  0  0  0999 V2000
  -27.7800   -7.4870  -31.5600 C   0  0  0  0  0  0  0  0  0  0  0  0
  -27.3190   -6.6400  -32.5230 N   0  0  0  0  0  0  0  0  0  0  0  0
  -27.6660   -8.8700  -31.7620 N   0  0  0  0  0  0  0  0  0  0  0  0
  -27.5500   -5.3410  -31.9960 C   0  0  0  0  0  0  0  0  0  0  0  0
  -27.3040   -4.0850  -32.5120 C   0  0  0  0  0  0  0  0  0  0  0  0
    0.0000    0.0000    0.0000 S   0  0  0  0  0  0  0  0  0  0  0  0
  1  2  2  3
  1  3  1  0
  2  4  1  0
  4  5  2  3
  5  6  1  0
M  END
>  <name>  (38) 
Car Nac Nd0 Car Car Sul

>  <indices>  (38) 
[0, 1, 2]

>  <dummy>  (38) 
2

>  <tasks>  (38) 
probe_placing close_aromatic_ring close_aromatic_ring

>  <current_task>  (38) 
close_aromatic_ring

>  <prot_clashes>  (38) 
1

>  <NBS phar>  (38) 
0.2

>  <NBS_non-phar>  (38) 
0.7970532894134521

>  <NBS>  (38) 
0.9970532894134521

>  <source_stage>  (38) 
scored

>  <source_iter>  (38) 
2

>  <source_parent_mol>  (38) 
0

>  <source_scenario>  (38) 
1 0

>  <source_rank_in_scored_call>  (38) 
4

>  <source_current_task>  (38) 
close_aromatic_ring

>  <scenario>  (38) 
1 0

>  <rotatable_bond_torsions>  (38) 
0,1,3,4

>  <reason_to_skip>  (38) 
some_atom_counter_exceeded

$$$$

     RDKit          3D

  6  5  0  0  0  0  0  0  0  0999 V2000
  -27.7800   -7.4870  -31.5600 C   0  0  0  0  0  0  0  0  0  0  0  0
  -27.3190   -6.6400  -32.5230 N   0  0  0  0  0  0  0  0  0  0  0  0
  -27.6660   -8.8700  -31.7620 N   0  0  0  0  0  0  0  0  0  0  0  0
  -27.5500   -5.3410  -31.9960 C   0  0  0  0  0  0  0  0  0  0  0  0
  -27.3040   -4.0850  -32.5120 C   0  0  0  0  0  0  0  0  0  0  0  0
    0.0000    0.0000    0.0000 S   0  0  0  0  0  0  0  0  0  0  0  0
  1  2  2  3
  1  3  1  0
  2  4  1  0
  4  5  2  3
  5  6  1  0
M  END
>  <name>  (39) 
Car Nac Nd0 Car Car Sul

>  <indices>  (39) 
[0, 1, 2]

>  <dummy>  (39) 
2

>  <tasks>  (39) 
probe_placing close_aromatic_ring close_aromatic_ring

>  <current_task>  (39) 
close_aromatic_ring

>  <prot_clashes>  (39) 
1

>  <NBS phar>  (39) 
0.2

>  <NBS_non-phar>  (39) 
0.7970532894134521

>  <NBS>  (39) 
0.9970532894134521

>  <source_stage>  (39) 
scored

>  <source_iter>  (39) 
2

>  <source_parent_mol>  (39) 
0

>  <source_scenario>  (39) 
1 0

>  <source_rank_in_scored_call>  (39) 
4

>  <source_current_task>  (39) 
close_aromatic_ring

>  <scenario>  (39) 
1 0

>  <rotatable_bond_torsions>  (39) 
0,1,3,4

>  <reason_to_skip>  (39) 
some_atom_counter_exceeded

$$$$

     RDKit          3D

  6  5  0  0  0  0  0  0  0  0999 V2000
  -27.7800   -7.4870  -31.5600 C   0  0  0  0  0  0  0  0  0  0  0  0
  -27.3190   -6.6400  -32.5230 N   0  0  0  0  0  0  0  0  0  0  0  0
  -27.6660   -8.8700  -31.7620 N   0  0  0  0  0  0  0  0  0  0  0  0
  -27.5500   -5.3410  -31.9960 C   0  0  0  0  0  0  0  0  0  0  0  0
  -27.3040   -4.0850  -32.5120 C   0  0  0  0  0  0  0  0  0  0  0  0
  -28.1570   -3.2289  -32.7167 N   0  0  0  0  0  0  0  0  0  0  0  0
  1  2  2  3
  1  3  1  0
  2  4  1  0
  4  5  2  3
  5  6  1  0
M  END
>  <name>  (40) 
Car Nac Nd0 Car Car Nac

>  <indices>  (40) 
[0, 1, 2]

>  <dummy>  (40) 
2

>  <tasks>  (40) 
probe_placing close_aromatic_ring close_aromatic_ring

>  <current_task>  (40) 
close_aromatic_ring

>  <prot_clashes>  (40) 
1

>  <NBS phar>  (40) 
0.2

>  <NBS_non-phar>  (40) 
0.7970532894134521

>  <NBS>  (40) 
0.9970532894134521

>  <source_stage>  (40) 
scored

>  <source_iter>  (40) 
2

>  <source_parent_mol>  (40) 
0

>  <source_scenario>  (40) 
1 0

>  <source_rank_in_scored_call>  (40) 
4

>  <source_current_task>  (40) 
close_aromatic_ring

>  <scenario>  (40) 
1 0

>  <rotatable_bond_torsions>  (40) 
0,1,3,4

>  <reason_to_skip>  (40) 
incorrect arom ring closing

$$$$

     RDKit          3D

  6  5  0  0  0  0  0  0  0  0999 V2000
  -27.7800   -7.4870  -31.5600 C   0  0  0  0  0  0  0  0  0  0  0  0
  -27.3190   -6.6400  -32.5230 N   0  0  0  0  0  0  0  0  0  0  0  0
  -27.6660   -8.8700  -31.7620 N   0  0  0  0  0  0  0  0  0  0  0  0
  -27.5500   -5.3410  -31.9960 C   0  0  0  0  0  0  0  0  0  0  0  0
  -27.3040   -4.0850  -32.5120 C   0  0  0  0  0  0  0  0  0  0  0  0
    0.0000    0.0000    0.0000 O   0  0  0  0  0  0  0  0  0  0  0  0
  1  2  2  3
  1  3  1  0
  2  4  1  0
  4  5  2  3
  5  6  1  0
M  END
>  <name>  (41) 
Car Nac Nd0 Car Car O_a

>  <indices>  (41) 
[0, 1, 2]

>  <dummy>  (41) 
2

>  <tasks>  (41) 
probe_placing close_aromatic_ring close_aromatic_ring

>  <current_task>  (41) 
close_aromatic_ring

>  <prot_clashes>  (41) 
1

>  <NBS phar>  (41) 
0.2

>  <NBS_non-phar>  (41) 
0.7970532894134521

>  <NBS>  (41) 
0.9970532894134521

>  <source_stage>  (41) 
scored

>  <source_iter>  (41) 
2

>  <source_parent_mol>  (41) 
0

>  <source_scenario>  (41) 
1 0

>  <source_rank_in_scored_call>  (41) 
4

>  <source_current_task>  (41) 
close_aromatic_ring

>  <scenario>  (41) 
1 0

>  <rotatable_bond_torsions>  (41) 
0,1,3,4

>  <reason_to_skip>  (41) 
some_atom_counter_exceeded

$$$$

     RDKit          3D

  6  5  0  0  0  0  0  0  0  0999 V2000
  -27.7800   -7.4870  -31.5600 C   0  0  0  0  0  0  0  0  0  0  0  0
  -27.3190   -6.6400  -32.5230 N   0  0  0  0  0  0  0  0  0  0  0  0
  -27.6660   -8.8700  -31.7620 N   0  0  0  0  0  0  0  0  0  0  0  0
  -27.5500   -5.3410  -31.9960 C   0  0  0  0  0  0  0  0  0  0  0  0
  -27.3040   -4.0850  -32.5120 C   0  0  0  0  0  0  0  0  0  0  0  0
    0.0000    0.0000    0.0000 O   0  0  0  0  0  0  0  0  0  0  0  0
  1  2  2  3
  1  3  1  0
  2  4  1  0
  4  5  2  3
  5  6  1  0
M  END
>  <name>  (42) 
Car Nac Nd0 Car Car O_a

>  <indices>  (42) 
[0, 1, 2]

>  <dummy>  (42) 
2

>  <tasks>  (42) 
probe_placing close_aromatic_ring close_aromatic_ring

>  <current_task>  (42) 
close_aromatic_ring

>  <prot_clashes>  (42) 
1

>  <NBS phar>  (42) 
0.2

>  <NBS_non-phar>  (42) 
0.7970532894134521

>  <NBS>  (42) 
0.9970532894134521

>  <source_stage>  (42) 
scored

>  <source_iter>  (42) 
2

>  <source_parent_mol>  (42) 
0

>  <source_scenario>  (42) 
1 0

>  <source_rank_in_scored_call>  (42) 
4

>  <source_current_task>  (42) 
close_aromatic_ring

>  <scenario>  (42) 
1 0

>  <rotatable_bond_torsions>  (42) 
0,1,3,4

>  <reason_to_skip>  (42) 
some_atom_counter_exceeded

$$$$

     RDKit          3D

  6  5  0  0  0  0  0  0  0  0999 V2000
  -27.7800   -7.4870  -31.5600 C   0  0  0  0  0  0  0  0  0  0  0  0
  -27.3190   -6.6400  -32.5230 N   0  0  0  0  0  0  0  0  0  0  0  0
  -27.6660   -8.8700  -31.7620 N   0  0  0  0  0  0  0  0  0  0  0  0
  -27.5500   -5.3410  -31.9960 C   0  0  0  0  0  0  0  0  0  0  0  0
  -27.3040   -4.0850  -32.5120 C   0  0  0  0  0  0  0  0  0  0  0  0
  -26.3786   -3.3127  -32.0564 N   0  0  0  0  0  0  0  0  0  0  0  0
  1  2  2  3
  1  3  1  0
  2  4  1  0
  4  5  2  3
  5  6  1  0
M  END
>  <name>  (43) 
Car Nac Nd0 Car Car Nac

>  <indices>  (43) 
[0, 1, 2]

>  <dummy>  (43) 
2

>  <tasks>  (43) 
probe_placing close_aromatic_ring close_aromatic_ring

>  <current_task>  (43) 
close_aromatic_ring

>  <prot_clashes>  (43) 
1

>  <NBS phar>  (43) 
0.2

>  <NBS_non-phar>  (43) 
0.7970532894134521

>  <NBS>  (43) 
0.9970532894134521

>  <source_stage>  (43) 
scored

>  <source_iter>  (43) 
2

>  <source_parent_mol>  (43) 
0

>  <source_scenario>  (43) 
1 0

>  <source_rank_in_scored_call>  (43) 
4

>  <source_current_task>  (43) 
close_aromatic_ring

>  <scenario>  (43) 
1 0

>  <rotatable_bond_torsions>  (43) 
0,1,3,4

>  <reason_to_skip>  (43) 
incorrect arom ring closing

$$$$

     RDKit          3D

  6  5  0  0  0  0  0  0  0  0999 V2000
  -27.7800   -7.4870  -31.5600 C   0  0  0  0  0  0  0  0  0  0  0  0
  -27.3190   -6.6400  -32.5230 N   0  0  0  0  0  0  0  0  0  0  0  0
  -27.6660   -8.8700  -31.7620 N   0  0  0  0  0  0  0  0  0  0  0  0
  -27.5500   -5.3410  -31.9960 C   0  0  0  0  0  0  0  0  0  0  0  0
  -27.3040   -4.0850  -32.5120 C   0  0  0  0  0  0  0  0  0  0  0  0
    0.0000    0.0000    0.0000 S   0  0  0  0  0  0  0  0  0  0  0  0
  1  2  2  3
  1  3  1  0
  2  4  1  0
  4  5  2  3
  5  6  1  0
M  END
>  <name>  (44) 
Car Nac Nd0 Car Car Sul

>  <indices>  (44) 
[0, 1, 2]

>  <dummy>  (44) 
2

>  <tasks>  (44) 
probe_placing close_aromatic_ring close_aromatic_ring

>  <current_task>  (44) 
close_aromatic_ring

>  <prot_clashes>  (44) 
1

>  <NBS phar>  (44) 
0.2

>  <NBS_non-phar>  (44) 
0.7970532894134521

>  <NBS>  (44) 
0.9970532894134521

>  <source_stage>  (44) 
scored

>  <source_iter>  (44) 
2

>  <source_parent_mol>  (44) 
0

>  <source_scenario>  (44) 
1 0

>  <source_rank_in_scored_call>  (44) 
4

>  <source_current_task>  (44) 
close_aromatic_ring

>  <scenario>  (44) 
1 0

>  <rotatable_bond_torsions>  (44) 
0,1,3,4

>  <reason_to_skip>  (44) 
some_atom_counter_exceeded

$$$$

     RDKit          3D

  6  5  0  0  0  0  0  0  0  0999 V2000
  -27.7800   -7.4870  -31.5600 C   0  0  0  0  0  0  0  0  0  0  0  0
  -27.3190   -6.6400  -32.5230 N   0  0  0  0  0  0  0  0  0  0  0  0
  -27.6660   -8.8700  -31.7620 N   0  0  0  0  0  0  0  0  0  0  0  0
  -27.5500   -5.3410  -31.9960 C   0  0  0  0  0  0  0  0  0  0  0  0
  -27.3040   -4.0850  -32.5120 C   0  0  0  0  0  0  0  0  0  0  0  0
    0.0000    0.0000    0.0000 S   0  0  0  0  0  0  0  0  0  0  0  0
  1  2  2  3
  1  3  1  0
  2  4  1  0
  4  5  2  3
  5  6  1  0
M  END
>  <name>  (45) 
Car Nac Nd0 Car Car Sul

>  <indices>  (45) 
[0, 1, 2]

>  <dummy>  (45) 
2

>  <tasks>  (45) 
probe_placing close_aromatic_ring close_aromatic_ring

>  <current_task>  (45) 
close_aromatic_ring

>  <prot_clashes>  (45) 
1

>  <NBS phar>  (45) 
0.2

>  <NBS_non-phar>  (45) 
0.7970532894134521

>  <NBS>  (45) 
0.9970532894134521

>  <source_stage>  (45) 
scored

>  <source_iter>  (45) 
2

>  <source_parent_mol>  (45) 
0

>  <source_scenario>  (45) 
1 0

>  <source_rank_in_scored_call>  (45) 
4

>  <source_current_task>  (45) 
close_aromatic_ring

>  <scenario>  (45) 
1 0

>  <rotatable_bond_torsions>  (45) 
0,1,3,4

>  <reason_to_skip>  (45) 
some_atom_counter_exceeded

$$$$

     RDKit          3D

  6  5  0  0  0  0  0  0  0  0999 V2000
  -27.7800   -7.4870  -31.5600 C   0  0  0  0  0  0  0  0  0  0  0  0
  -27.3190   -6.6400  -32.5230 N   0  0  0  0  0  0  0  0  0  0  0  0
  -27.6660   -8.8700  -31.7620 N   0  0  0  0  0  0  0  0  0  0  0  0
  -27.5500   -5.3410  -31.9960 C   0  0  0  0  0  0  0  0  0  0  0  0
  -27.3040   -4.0850  -32.5120 C   0  0  0  0  0  0  0  0  0  0  0  0
  -26.7706   -3.8024  -33.8026 N   0  0  0  0  0  0  0  0  0  0  0  0
  1  2  2  3
  1  3  1  0
  2  4  1  0
  4  5  2  3
  5  6  1  0
M  END
>  <name>  (46) 
Car Nac Nd0 Car Car Nac

>  <indices>  (46) 
[0, 1, 2]

>  <dummy>  (46) 
2

>  <tasks>  (46) 
probe_placing close_aromatic_ring close_aromatic_ring

>  <current_task>  (46) 
close_aromatic_ring

>  <prot_clashes>  (46) 
1

>  <NBS phar>  (46) 
0.2

>  <NBS_non-phar>  (46) 
0.7970532894134521

>  <NBS>  (46) 
0.9970532894134521

>  <source_stage>  (46) 
scored

>  <source_iter>  (46) 
2

>  <source_parent_mol>  (46) 
0

>  <source_scenario>  (46) 
1 0

>  <source_rank_in_scored_call>  (46) 
4

>  <source_current_task>  (46) 
close_aromatic_ring

>  <scenario>  (46) 
1 0

>  <rotatable_bond_torsions>  (46) 
0,1,3,4

>  <reason_to_skip>  (46) 
subgraph mismatch

$$$$

     RDKit          3D

  6  5  0  0  0  0  0  0  0  0999 V2000
  -27.7800   -7.4870  -31.5600 C   0  0  0  0  0  0  0  0  0  0  0  0
  -27.3190   -6.6400  -32.5230 N   0  0  0  0  0  0  0  0  0  0  0  0
  -27.6660   -8.8700  -31.7620 N   0  0  0  0  0  0  0  0  0  0  0  0
  -27.5500   -5.3410  -31.9960 C   0  0  0  0  0  0  0  0  0  0  0  0
  -27.3040   -4.0850  -32.5120 C   0  0  0  0  0  0  0  0  0  0  0  0
  -26.7597   -3.8344  -33.7053 N   0  0  0  0  0  0  0  0  0  0  0  0
  1  2  2  3
  1  3  1  0
  2  4  1  0
  4  5  2  3
  5  6  1  0
M  END
>  <name>  (47) 
Car Nac Nd0 Car Car Nd0

>  <indices>  (47) 
[0, 1, 2]

>  <dummy>  (47) 
2

>  <tasks>  (47) 
probe_placing close_aromatic_ring close_aromatic_ring

>  <current_task>  (47) 
close_aromatic_ring

>  <prot_clashes>  (47) 
1

>  <NBS phar>  (47) 
0.2

>  <NBS_non-phar>  (47) 
0.7970532894134521

>  <NBS>  (47) 
0.9970532894134521

>  <source_stage>  (47) 
scored

>  <source_iter>  (47) 
2

>  <source_parent_mol>  (47) 
0

>  <source_scenario>  (47) 
1 0

>  <source_rank_in_scored_call>  (47) 
4

>  <source_current_task>  (47) 
close_aromatic_ring

>  <scenario>  (47) 
1 0

>  <rotatable_bond_torsions>  (47) 
0,1,3,4

>  <reason_to_skip>  (47) 
repulsion after minimization

$$$$

     RDKit          3D

  6  5  0  0  0  0  0  0  0  0999 V2000
  -27.0460   -8.9430  -24.4740 C   0  0  0  0  0  0  0  0  0  0  0  0
  -26.7020   -8.8200  -25.7870 N   0  0  0  0  0  0  0  0  0  0  0  0
  -26.0520   -9.2660  -23.5400 N   0  0  0  0  0  0  0  0  0  0  0  0
  -27.9110   -8.4580  -26.4400 C   0  0  0  0  0  0  0  0  0  0  0  0
  -28.1970   -8.2060  -27.7670 C   0  0  0  0  0  0  0  0  0  0  0  0
  -27.2200   -8.1890  -28.8930 C   0  0  0  0  0  0  0  0  0  0  0  0
  1  2  2  3
  1  3  1  0
  2  4  1  0
  4  5  2  3
  5  6  1  0
M  END
>  <name>  (48) 
Car Nac Nd0 Car Car Car

>  <indices>  (48) 
[0, 1, 2]

>  <dummy>  (48) 
2

>  <tasks>  (48) 
probe_placing close_aromatic_ring close_aromatic_ring

>  <current_task>  (48) 
close_aromatic_ring

>  <prot_clashes>  (48) 
1

>  <NBS phar>  (48) 
0.2

>  <NBS_non-phar>  (48) 
0.7970532894134521

>  <NBS>  (48) 
0.9970532894134521

>  <source_stage>  (48) 
scored

>  <source_iter>  (48) 
2

>  <source_parent_mol>  (48) 
0

>  <source_scenario>  (48) 
1 0

>  <source_rank_in_scored_call>  (48) 
4

>  <source_current_task>  (48) 
close_aromatic_ring

>  <scenario>  (48) 
1 0

>  <rotatable_bond_torsions>  (48) 
0,1,3,4

>  <reason_to_skip>  (48) 
repulsion after minimization

$$$$

     RDKit          3D

  7  6  0  0  0  0  0  0  0  0999 V2000
  -28.7320   -8.0270  -32.2350 C   0  0  0  0  0  0  0  0  0  0  0  0
  -27.9040   -7.0830  -32.7640 N   0  0  0  0  0  0  0  0  0  0  0  0
  -28.7550   -9.3070  -32.8080 N   0  0  0  0  0  0  0  0  0  0  0  0
  -28.0960   -5.9390  -31.9420 C   0  0  0  0  0  0  0  0  0  0  0  0
  -27.5440   -4.6760  -31.9860 C   0  0  0  0  0  0  0  0  0  0  0  0
  -26.6530   -4.2540  -32.8870 N   0  0  0  0  0  0  0  0  0  0  0  0
    0.0000    0.0000    0.0000 N   0  0  0  0  0  0  0  0  0  0  0  0
  1  3  1  0
  1  2  2  3
  2  4  1  0
  4  5  2  3
  5  6  1  0
  6  7  1  0
M  END
>  <name>  (1) 
Car Nac Nd0 Car Car Nd0 Nd0

>  <indices>  (1) 
[0, 1, 2]

>  <dummy>  (1) 
2

>  <tasks>  (1) 
probe_placing close_aromatic_ring close_aromatic_ring close_aromatic_ring

>  <current_task>  (1) 
close_aromatic_ring

>  <prot_clashes>  (1) 
3

>  <NBS phar>  (1) 
0.1

>  <NBS_non-phar>  (1) 
0.5834510723749796

>  <NBS>  (1) 
0.6834510723749796

>  <source_stage>  (1) 
scored

>  <source_iter>  (1) 
3

>  <source_parent_mol>  (1) 
2

>  <source_scenario>  (1) 
1 0 2

>  <source_rank_in_scored_call>  (1) 
0

>  <source_current_task>  (1) 
close_aromatic_ring

>  <scenario>  (1) 
1 0 2

>  <rotatable_bond_torsions>  (1) 
0,1,3,4

>  <reason_to_skip>  (1) 
some_atom_counter_exceeded

$$$$

     RDKit          3D

  7  6  0  0  0  0  0  0  0  0999 V2000
  -28.7320   -8.0270  -32.2350 C   0  0  0  0  0  0  0  0  0  0  0  0
  -27.9040   -7.0830  -32.7640 N   0  0  0  0  0  0  0  0  0  0  0  0
  -28.7550   -9.3070  -32.8080 N   0  0  0  0  0  0  0  0  0  0  0  0
  -28.0960   -5.9390  -31.9420 C   0  0  0  0  0  0  0  0  0  0  0  0
  -27.5440   -4.6760  -31.9860 C   0  0  0  0  0  0  0  0  0  0  0  0
  -26.6530   -4.2540  -32.8870 N   0  0  0  0  0  0  0  0  0  0  0  0
    0.0000    0.0000    0.0000 N   0  0  0  0  0  0  0  0  0  0  0  0
  1  3  1  0
  1  2  2  3
  2  4  1  0
  4  5  2  3
  5  6  1  0
  6  7  1  0
M  END
>  <name>  (2) 
Car Nac Nd0 Car Car Nd0 Nd0

>  <indices>  (2) 
[0, 1, 2]

>  <dummy>  (2) 
2

>  <tasks>  (2) 
probe_placing close_aromatic_ring close_aromatic_ring close_aromatic_ring

>  <current_task>  (2) 
close_aromatic_ring

>  <prot_clashes>  (2) 
3

>  <NBS phar>  (2) 
0.1

>  <NBS_non-phar>  (2) 
0.5834510723749796

>  <NBS>  (2) 
0.6834510723749796

>  <source_stage>  (2) 
scored

>  <source_iter>  (2) 
3

>  <source_parent_mol>  (2) 
2

>  <source_scenario>  (2) 
1 0 2

>  <source_rank_in_scored_call>  (2) 
0

>  <source_current_task>  (2) 
close_aromatic_ring

>  <scenario>  (2) 
1 0 2

>  <rotatable_bond_torsions>  (2) 
0,1,3,4

>  <reason_to_skip>  (2) 
some_atom_counter_exceeded

$$$$

     RDKit          3D

  7  6  0  0  0  0  0  0  0  0999 V2000
  -28.7320   -8.0270  -32.2350 C   0  0  0  0  0  0  0  0  0  0  0  0
  -27.9040   -7.0830  -32.7640 N   0  0  0  0  0  0  0  0  0  0  0  0
  -28.7550   -9.3070  -32.8080 N   0  0  0  0  0  0  0  0  0  0  0  0
  -28.0960   -5.9390  -31.9420 C   0  0  0  0  0  0  0  0  0  0  0  0
  -27.5440   -4.6760  -31.9860 C   0  0  0  0  0  0  0  0  0  0  0  0
  -26.6530   -4.2540  -32.8870 N   0  0  0  0  0  0  0  0  0  0  0  0
  -26.2090   -3.0255  -33.0462 C   0  0  0  0  0  0  0  0  0  0  0  0
  1  3  1  0
  1  2  2  3
  2  4  1  0
  4  5  2  3
  5  6  1  0
  6  7  1  0
M  END
>  <name>  (3) 
Car Nac Nd0 Car Car Nd0 Car

>  <indices>  (3) 
[0, 1, 2]

>  <dummy>  (3) 
2

>  <tasks>  (3) 
probe_placing close_aromatic_ring close_aromatic_ring close_aromatic_ring

>  <current_task>  (3) 
close_aromatic_ring

>  <prot_clashes>  (3) 
3

>  <NBS phar>  (3) 
0.1

>  <NBS_non-phar>  (3) 
0.5834510723749796

>  <NBS>  (3) 
0.6834510723749796

>  <source_stage>  (3) 
scored

>  <source_iter>  (3) 
3

>  <source_parent_mol>  (3) 
2

>  <source_scenario>  (3) 
1 0 2

>  <source_rank_in_scored_call>  (3) 
0

>  <source_current_task>  (3) 
close_aromatic_ring

>  <scenario>  (3) 
1 0 2

>  <rotatable_bond_torsions>  (3) 
0,1,3,4

>  <reason_to_skip>  (3) 
incorrect arom ring closing

$$$$

     RDKit          3D

  7  6  0  0  0  0  0  0  0  0999 V2000
  -28.7320   -8.0270  -32.2350 C   0  0  0  0  0  0  0  0  0  0  0  0
  -27.9040   -7.0830  -32.7640 N   0  0  0  0  0  0  0  0  0  0  0  0
  -28.7550   -9.3070  -32.8080 N   0  0  0  0  0  0  0  0  0  0  0  0
  -28.0960   -5.9390  -31.9420 C   0  0  0  0  0  0  0  0  0  0  0  0
  -27.5440   -4.6760  -31.9860 C   0  0  0  0  0  0  0  0  0  0  0  0
  -26.6530   -4.2540  -32.8870 N   0  0  0  0  0  0  0  0  0  0  0  0
  -26.5838   -5.4834  -33.5883 N   0  0  0  0  0  0  0  0  0  0  0  0
  1  3  1  0
  1  2  2  3
  2  4  1  0
  4  5  2  3
  5  6  1  0
  6  7  1  0
M  END
>  <name>  (4) 
Car Nac Nd0 Car Car Nd0 Nac

>  <indices>  (4) 
[0, 1, 2]

>  <dummy>  (4) 
2

>  <tasks>  (4) 
probe_placing close_aromatic_ring close_aromatic_ring close_aromatic_ring

>  <current_task>  (4) 
close_aromatic_ring

>  <prot_clashes>  (4) 
3

>  <NBS phar>  (4) 
0.1

>  <NBS_non-phar>  (4) 
0.5834510723749796

>  <NBS>  (4) 
0.6834510723749796

>  <source_stage>  (4) 
scored

>  <source_iter>  (4) 
3

>  <source_parent_mol>  (4) 
2

>  <source_scenario>  (4) 
1 0 2

>  <source_rank_in_scored_call>  (4) 
0

>  <source_current_task>  (4) 
close_aromatic_ring

>  <scenario>  (4) 
1 0 2

>  <rotatable_bond_torsions>  (4) 
0,1,3,4

>  <reason_to_skip>  (4) 
bad angles

$$$$

     RDKit          3D

  7  6  0  0  0  0  0  0  0  0999 V2000
  -28.7320   -8.0270  -32.2350 C   0  0  0  0  0  0  0  0  0  0  0  0
  -27.9040   -7.0830  -32.7640 N   0  0  0  0  0  0  0  0  0  0  0  0
  -28.7550   -9.3070  -32.8080 N   0  0  0  0  0  0  0  0  0  0  0  0
  -28.0960   -5.9390  -31.9420 C   0  0  0  0  0  0  0  0  0  0  0  0
  -27.5440   -4.6760  -31.9860 C   0  0  0  0  0  0  0  0  0  0  0  0
  -26.6530   -4.2540  -32.8870 N   0  0  0  0  0  0  0  0  0  0  0  0
  -26.3367   -2.9625  -32.6212 N   0  0  0  0  0  0  0  0  0  0  0  0
  1  3  1  0
  1  2  2  3
  2  4  1  0
  4  5  2  3
  5  6  1  0
  6  7  1  0
M  END
>  <name>  (5) 
Car Nac Nd0 Car Car Nd0 Nac

>  <indices>  (5) 
[0, 1, 2]

>  <dummy>  (5) 
2

>  <tasks>  (5) 
probe_placing close_aromatic_ring close_aromatic_ring close_aromatic_ring

>  <current_task>  (5) 
close_aromatic_ring

>  <prot_clashes>  (5) 
3

>  <NBS phar>  (5) 
0.1

>  <NBS_non-phar>  (5) 
0.5834510723749796

>  <NBS>  (5) 
0.6834510723749796

>  <source_stage>  (5) 
scored

>  <source_iter>  (5) 
3

>  <source_parent_mol>  (5) 
2

>  <source_scenario>  (5) 
1 0 2

>  <source_rank_in_scored_call>  (5) 
0

>  <source_current_task>  (5) 
close_aromatic_ring

>  <scenario>  (5) 
1 0 2

>  <rotatable_bond_torsions>  (5) 
0,1,3,4

>  <reason_to_skip>  (5) 
incorrect arom ring closing

$$$$

     RDKit          3D

  7  6  0  0  0  0  0  0  0  0999 V2000
  -28.7320   -8.0270  -32.2350 C   0  0  0  0  0  0  0  0  0  0  0  0
  -27.9040   -7.0830  -32.7640 N   0  0  0  0  0  0  0  0  0  0  0  0
  -28.7550   -9.3070  -32.8080 N   0  0  0  0  0  0  0  0  0  0  0  0
  -28.0960   -5.9390  -31.9420 C   0  0  0  0  0  0  0  0  0  0  0  0
  -27.5440   -4.6760  -31.9860 C   0  0  0  0  0  0  0  0  0  0  0  0
  -26.6530   -4.2540  -32.8870 N   0  0  0  0  0  0  0  0  0  0  0  0
  -26.3378   -3.0375  -33.3405 C   0  0  0  0  0  0  0  0  0  0  0  0
  1  3  1  0
  1  2  2  3
  2  4  1  0
  4  5  2  3
  5  6  1  0
  6  7  1  0
M  END
>  <name>  (6) 
Car Nac Nd0 Car Car Nd0 Car

>  <indices>  (6) 
[0, 1, 2]

>  <dummy>  (6) 
2

>  <tasks>  (6) 
probe_placing close_aromatic_ring close_aromatic_ring close_aromatic_ring

>  <current_task>  (6) 
close_aromatic_ring

>  <prot_clashes>  (6) 
3

>  <NBS phar>  (6) 
0.1

>  <NBS_non-phar>  (6) 
0.5834510723749796

>  <NBS>  (6) 
0.6834510723749796

>  <source_stage>  (6) 
scored

>  <source_iter>  (6) 
3

>  <source_parent_mol>  (6) 
2

>  <source_scenario>  (6) 
1 0 2

>  <source_rank_in_scored_call>  (6) 
0

>  <source_current_task>  (6) 
close_aromatic_ring

>  <scenario>  (6) 
1 0 2

>  <rotatable_bond_torsions>  (6) 
0,1,3,4

>  <reason_to_skip>  (6) 
incorrect arom ring closing

$$$$

     RDKit          3D

  7  6  0  0  0  0  0  0  0  0999 V2000
  -28.7320   -8.0270  -32.2350 C   0  0  0  0  0  0  0  0  0  0  0  0
  -27.9040   -7.0830  -32.7640 N   0  0  0  0  0  0  0  0  0  0  0  0
  -28.7550   -9.3070  -32.8080 N   0  0  0  0  0  0  0  0  0  0  0  0
  -28.0960   -5.9390  -31.9420 C   0  0  0  0  0  0  0  0  0  0  0  0
  -27.5440   -4.6760  -31.9860 C   0  0  0  0  0  0  0  0  0  0  0  0
  -26.6530   -4.2540  -32.8870 N   0  0  0  0  0  0  0  0  0  0  0  0
  -25.2859   -3.8886  -32.6039 C   0  0  0  0  0  0  0  0  0  0  0  0
  1  3  1  0
  1  2  2  3
  2  4  1  0
  4  5  2  3
  5  6  1  0
  6  7  1  0
M  END
>  <name>  (7) 
Car Nac Nd0 Car Car Nd0 Car

>  <indices>  (7) 
[0, 1, 2]

>  <dummy>  (7) 
2

>  <tasks>  (7) 
probe_placing close_aromatic_ring close_aromatic_ring close_aromatic_ring

>  <current_task>  (7) 
close_aromatic_ring

>  <prot_clashes>  (7) 
3

>  <NBS phar>  (7) 
0.1

>  <NBS_non-phar>  (7) 
0.5834510723749796

>  <NBS>  (7) 
0.6834510723749796

>  <source_stage>  (7) 
scored

>  <source_iter>  (7) 
3

>  <source_parent_mol>  (7) 
2

>  <source_scenario>  (7) 
1 0 2

>  <source_rank_in_scored_call>  (7) 
0

>  <source_current_task>  (7) 
close_aromatic_ring

>  <scenario>  (7) 
1 0 2

>  <rotatable_bond_torsions>  (7) 
0,1,3,4

>  <reason_to_skip>  (7) 
incorrect arom ring closing

$$$$

     RDKit          3D

  7  6  0  0  0  0  0  0  0  0999 V2000
  -28.7320   -8.0270  -32.2350 C   0  0  0  0  0  0  0  0  0  0  0  0
  -27.9040   -7.0830  -32.7640 N   0  0  0  0  0  0  0  0  0  0  0  0
  -28.7550   -9.3070  -32.8080 N   0  0  0  0  0  0  0  0  0  0  0  0
  -28.0960   -5.9390  -31.9420 C   0  0  0  0  0  0  0  0  0  0  0  0
  -27.5440   -4.6760  -31.9860 C   0  0  0  0  0  0  0  0  0  0  0  0
  -26.6530   -4.2540  -32.8870 N   0  0  0  0  0  0  0  0  0  0  0  0
  -26.9757   -3.3114  -33.9314 C   0  0  0  0  0  0  0  0  0  0  0  0
  1  3  1  0
  1  2  2  3
  2  4  1  0
  4  5  2  3
  5  6  1  0
  6  7  1  0
M  END
>  <name>  (8) 
Car Nac Nd0 Car Car Nd0 Car

>  <indices>  (8) 
[0, 1, 2]

>  <dummy>  (8) 
2

>  <tasks>  (8) 
probe_placing close_aromatic_ring close_aromatic_ring close_aromatic_ring

>  <current_task>  (8) 
close_aromatic_ring

>  <prot_clashes>  (8) 
3

>  <NBS phar>  (8) 
0.1

>  <NBS_non-phar>  (8) 
0.5834510723749796

>  <NBS>  (8) 
0.6834510723749796

>  <source_stage>  (8) 
scored

>  <source_iter>  (8) 
3

>  <source_parent_mol>  (8) 
2

>  <source_scenario>  (8) 
1 0 2

>  <source_rank_in_scored_call>  (8) 
0

>  <source_current_task>  (8) 
close_aromatic_ring

>  <scenario>  (8) 
1 0 2

>  <rotatable_bond_torsions>  (8) 
0,1,3,4

>  <reason_to_skip>  (8) 
incorrect arom ring closing

$$$$

     RDKit          3D

  7  6  0  0  0  0  0  0  0  0999 V2000
  -28.7320   -8.0270  -32.2350 C   0  0  0  0  0  0  0  0  0  0  0  0
  -27.9040   -7.0830  -32.7640 N   0  0  0  0  0  0  0  0  0  0  0  0
  -28.7550   -9.3070  -32.8080 N   0  0  0  0  0  0  0  0  0  0  0  0
  -28.0960   -5.9390  -31.9420 C   0  0  0  0  0  0  0  0  0  0  0  0
  -27.5440   -4.6760  -31.9860 C   0  0  0  0  0  0  0  0  0  0  0  0
  -26.6530   -4.2540  -32.8870 N   0  0  0  0  0  0  0  0  0  0  0  0
  -25.3936   -4.0332  -32.5841 C   0  0  0  0  0  0  0  0  0  0  0  0
  1  3  1  0
  1  2  2  3
  2  4  1  0
  4  5  2  3
  5  6  1  0
  6  7  1  0
M  END
>  <name>  (9) 
Car Nac Nd0 Car Car Nd0 Car

>  <indices>  (9) 
[0, 1, 2]

>  <dummy>  (9) 
2

>  <tasks>  (9) 
probe_placing close_aromatic_ring close_aromatic_ring close_aromatic_ring

>  <current_task>  (9) 
close_aromatic_ring

>  <prot_clashes>  (9) 
3

>  <NBS phar>  (9) 
0.1

>  <NBS_non-phar>  (9) 
0.5834510723749796

>  <NBS>  (9) 
0.6834510723749796

>  <source_stage>  (9) 
scored

>  <source_iter>  (9) 
3

>  <source_parent_mol>  (9) 
2

>  <source_scenario>  (9) 
1 0 2

>  <source_rank_in_scored_call>  (9) 
0

>  <source_current_task>  (9) 
close_aromatic_ring

>  <scenario>  (9) 
1 0 2

>  <rotatable_bond_torsions>  (9) 
0,1,3,4

>  <reason_to_skip>  (9) 
incorrect arom ring closing

$$$$

     RDKit          3D

  7  6  0  0  0  0  0  0  0  0999 V2000
  -28.7320   -8.0270  -32.2350 C   0  0  0  0  0  0  0  0  0  0  0  0
  -27.9040   -7.0830  -32.7640 N   0  0  0  0  0  0  0  0  0  0  0  0
  -28.7550   -9.3070  -32.8080 N   0  0  0  0  0  0  0  0  0  0  0  0
  -28.0960   -5.9390  -31.9420 C   0  0  0  0  0  0  0  0  0  0  0  0
  -27.5440   -4.6760  -31.9860 C   0  0  0  0  0  0  0  0  0  0  0  0
  -26.6530   -4.2540  -32.8870 N   0  0  0  0  0  0  0  0  0  0  0  0
  -26.3979   -2.9635  -32.5757 N   0  0  0  0  0  0  0  0  0  0  0  0
  1  3  1  0
  1  2  2  3
  2  4  1  0
  4  5  2  3
  5  6  1  0
  6  7  1  0
M  END
>  <name>  (10) 
Car Nac Nd0 Car Car Nd0 Nac

>  <indices>  (10) 
[0, 1, 2]

>  <dummy>  (10) 
2

>  <tasks>  (10) 
probe_placing close_aromatic_ring close_aromatic_ring close_aromatic_ring

>  <current_task>  (10) 
close_aromatic_ring

>  <prot_clashes>  (10) 
3

>  <NBS phar>  (10) 
0.1

>  <NBS_non-phar>  (10) 
0.5834510723749796

>  <NBS>  (10) 
0.6834510723749796

>  <source_stage>  (10) 
scored

>  <source_iter>  (10) 
3

>  <source_parent_mol>  (10) 
2

>  <source_scenario>  (10) 
1 0 2

>  <source_rank_in_scored_call>  (10) 
0

>  <source_current_task>  (10) 
close_aromatic_ring

>  <scenario>  (10) 
1 0 2

>  <rotatable_bond_torsions>  (10) 
0,1,3,4

>  <reason_to_skip>  (10) 
incorrect arom ring closing

$$$$

     RDKit          3D

  7  6  0  0  0  0  0  0  0  0999 V2000
  -28.7320   -8.0270  -32.2350 C   0  0  0  0  0  0  0  0  0  0  0  0
  -27.9040   -7.0830  -32.7640 N   0  0  0  0  0  0  0  0  0  0  0  0
  -28.7550   -9.3070  -32.8080 N   0  0  0  0  0  0  0  0  0  0  0  0
  -28.0960   -5.9390  -31.9420 C   0  0  0  0  0  0  0  0  0  0  0  0
  -27.5440   -4.6760  -31.9860 C   0  0  0  0  0  0  0  0  0  0  0  0
  -26.6530   -4.2540  -32.8870 N   0  0  0  0  0  0  0  0  0  0  0  0
    0.0000    0.0000    0.0000 O   0  0  0  0  0  0  0  0  0  0  0  0
  1  3  1  0
  1  2  2  3
  2  4  1  0
  4  5  2  3
  5  6  1  0
  6  7  1  0
M  END
>  <name>  (11) 
Car Nac Nd0 Car Car Nd0 O_a

>  <indices>  (11) 
[0, 1, 2]

>  <dummy>  (11) 
2

>  <tasks>  (11) 
probe_placing close_aromatic_ring close_aromatic_ring close_aromatic_ring

>  <current_task>  (11) 
close_aromatic_ring

>  <prot_clashes>  (11) 
3

>  <NBS phar>  (11) 
0.1

>  <NBS_non-phar>  (11) 
0.5834510723749796

>  <NBS>  (11) 
0.6834510723749796

>  <source_stage>  (11) 
scored

>  <source_iter>  (11) 
3

>  <source_parent_mol>  (11) 
2

>  <source_scenario>  (11) 
1 0 2

>  <source_rank_in_scored_call>  (11) 
0

>  <source_current_task>  (11) 
close_aromatic_ring

>  <scenario>  (11) 
1 0 2

>  <rotatable_bond_torsions>  (11) 
0,1,3,4

>  <reason_to_skip>  (11) 
some_atom_counter_exceeded

$$$$

     RDKit          3D

  7  6  0  0  0  0  0  0  0  0999 V2000
  -28.7320   -8.0270  -32.2350 C   0  0  0  0  0  0  0  0  0  0  0  0
  -27.9040   -7.0830  -32.7640 N   0  0  0  0  0  0  0  0  0  0  0  0
  -28.7550   -9.3070  -32.8080 N   0  0  0  0  0  0  0  0  0  0  0  0
  -28.0960   -5.9390  -31.9420 C   0  0  0  0  0  0  0  0  0  0  0  0
  -27.5440   -4.6760  -31.9860 C   0  0  0  0  0  0  0  0  0  0  0  0
  -26.6530   -4.2540  -32.8870 N   0  0  0  0  0  0  0  0  0  0  0  0
    0.0000    0.0000    0.0000 O   0  0  0  0  0  0  0  0  0  0  0  0
  1  3  1  0
  1  2  2  3
  2  4  1  0
  4  5  2  3
  5  6  1  0
  6  7  1  0
M  END
>  <name>  (12) 
Car Nac Nd0 Car Car Nd0 O_a

>  <indices>  (12) 
[0, 1, 2]

>  <dummy>  (12) 
2

>  <tasks>  (12) 
probe_placing close_aromatic_ring close_aromatic_ring close_aromatic_ring

>  <current_task>  (12) 
close_aromatic_ring

>  <prot_clashes>  (12) 
3

>  <NBS phar>  (12) 
0.1

>  <NBS_non-phar>  (12) 
0.5834510723749796

>  <NBS>  (12) 
0.6834510723749796

>  <source_stage>  (12) 
scored

>  <source_iter>  (12) 
3

>  <source_parent_mol>  (12) 
2

>  <source_scenario>  (12) 
1 0 2

>  <source_rank_in_scored_call>  (12) 
0

>  <source_current_task>  (12) 
close_aromatic_ring

>  <scenario>  (12) 
1 0 2

>  <rotatable_bond_torsions>  (12) 
0,1,3,4

>  <reason_to_skip>  (12) 
some_atom_counter_exceeded

$$$$

     RDKit          3D

  7  6  0  0  0  0  0  0  0  0999 V2000
  -28.7320   -8.0270  -32.2350 C   0  0  0  0  0  0  0  0  0  0  0  0
  -27.9040   -7.0830  -32.7640 N   0  0  0  0  0  0  0  0  0  0  0  0
  -28.7550   -9.3070  -32.8080 N   0  0  0  0  0  0  0  0  0  0  0  0
  -28.0960   -5.9390  -31.9420 C   0  0  0  0  0  0  0  0  0  0  0  0
  -27.5440   -4.6760  -31.9860 C   0  0  0  0  0  0  0  0  0  0  0  0
  -26.6530   -4.2540  -32.8870 N   0  0  0  0  0  0  0  0  0  0  0  0
  -25.6699   -4.8923  -33.3330 N   0  0  0  0  0  0  0  0  0  0  0  0
  1  3  1  0
  1  2  2  3
  2  4  1  0
  4  5  2  3
  5  6  1  0
  6  7  1  0
M  END
>  <name>  (13) 
Car Nac Nd0 Car Car Nd0 Nac

>  <indices>  (13) 
[0, 1, 2]

>  <dummy>  (13) 
2

>  <tasks>  (13) 
probe_placing close_aromatic_ring close_aromatic_ring close_aromatic_ring

>  <current_task>  (13) 
close_aromatic_ring

>  <prot_clashes>  (13) 
3

>  <NBS phar>  (13) 
0.1

>  <NBS_non-phar>  (13) 
0.5834510723749796

>  <NBS>  (13) 
0.6834510723749796

>  <source_stage>  (13) 
scored

>  <source_iter>  (13) 
3

>  <source_parent_mol>  (13) 
2

>  <source_scenario>  (13) 
1 0 2

>  <source_rank_in_scored_call>  (13) 
0

>  <source_current_task>  (13) 
close_aromatic_ring

>  <scenario>  (13) 
1 0 2

>  <rotatable_bond_torsions>  (13) 
0,1,3,4

>  <reason_to_skip>  (13) 
incorrect arom ring closing

$$$$

     RDKit          3D

  7  6  0  0  0  0  0  0  0  0999 V2000
  -28.7320   -8.0270  -32.2350 C   0  0  0  0  0  0  0  0  0  0  0  0
  -27.9040   -7.0830  -32.7640 N   0  0  0  0  0  0  0  0  0  0  0  0
  -28.7550   -9.3070  -32.8080 N   0  0  0  0  0  0  0  0  0  0  0  0
  -28.0960   -5.9390  -31.9420 C   0  0  0  0  0  0  0  0  0  0  0  0
  -27.5440   -4.6760  -31.9860 C   0  0  0  0  0  0  0  0  0  0  0  0
  -26.6530   -4.2540  -32.8870 N   0  0  0  0  0  0  0  0  0  0  0  0
    0.0000    0.0000    0.0000 N   0  0  0  0  0  0  0  0  0  0  0  0
  1  3  1  0
  1  2  2  3
  2  4  1  0
  4  5  2  3
  5  6  1  0
  6  7  1  0
M  END
>  <name>  (14) 
Car Nac Nd0 Car Car Nd0 Nd0

>  <indices>  (14) 
[0, 1, 2]

>  <dummy>  (14) 
2

>  <tasks>  (14) 
probe_placing close_aromatic_ring close_aromatic_ring close_aromatic_ring

>  <current_task>  (14) 
close_aromatic_ring

>  <prot_clashes>  (14) 
3

>  <NBS phar>  (14) 
0.1

>  <NBS_non-phar>  (14) 
0.5834510723749796

>  <NBS>  (14) 
0.6834510723749796

>  <source_stage>  (14) 
scored

>  <source_iter>  (14) 
3

>  <source_parent_mol>  (14) 
2

>  <source_scenario>  (14) 
1 0 2

>  <source_rank_in_scored_call>  (14) 
0

>  <source_current_task>  (14) 
close_aromatic_ring

>  <scenario>  (14) 
1 0 2

>  <rotatable_bond_torsions>  (14) 
0,1,3,4

>  <reason_to_skip>  (14) 
some_atom_counter_exceeded

$$$$

     RDKit          3D

  7  6  0  0  0  0  0  0  0  0999 V2000
  -28.7320   -8.0270  -32.2350 C   0  0  0  0  0  0  0  0  0  0  0  0
  -27.9040   -7.0830  -32.7640 N   0  0  0  0  0  0  0  0  0  0  0  0
  -28.7550   -9.3070  -32.8080 N   0  0  0  0  0  0  0  0  0  0  0  0
  -28.0960   -5.9390  -31.9420 C   0  0  0  0  0  0  0  0  0  0  0  0
  -27.5440   -4.6760  -31.9860 C   0  0  0  0  0  0  0  0  0  0  0  0
  -26.6530   -4.2540  -32.8870 N   0  0  0  0  0  0  0  0  0  0  0  0
    0.0000    0.0000    0.0000 N   0  0  0  0  0  0  0  0  0  0  0  0
  1  3  1  0
  1  2  2  3
  2  4  1  0
  4  5  2  3
  5  6  1  0
  6  7  1  0
M  END
>  <name>  (15) 
Car Nac Nd0 Car Car Nd0 Nd0

>  <indices>  (15) 
[0, 1, 2]

>  <dummy>  (15) 
2

>  <tasks>  (15) 
probe_placing close_aromatic_ring close_aromatic_ring close_aromatic_ring

>  <current_task>  (15) 
close_aromatic_ring

>  <prot_clashes>  (15) 
3

>  <NBS phar>  (15) 
0.1

>  <NBS_non-phar>  (15) 
0.5834510723749796

>  <NBS>  (15) 
0.6834510723749796

>  <source_stage>  (15) 
scored

>  <source_iter>  (15) 
3

>  <source_parent_mol>  (15) 
2

>  <source_scenario>  (15) 
1 0 2

>  <source_rank_in_scored_call>  (15) 
0

>  <source_current_task>  (15) 
close_aromatic_ring

>  <scenario>  (15) 
1 0 2

>  <rotatable_bond_torsions>  (15) 
0,1,3,4

>  <reason_to_skip>  (15) 
some_atom_counter_exceeded

$$$$

     RDKit          3D

  7  6  0  0  0  0  0  0  0  0999 V2000
  -28.7320   -8.0270  -32.2350 C   0  0  0  0  0  0  0  0  0  0  0  0
  -27.9040   -7.0830  -32.7640 N   0  0  0  0  0  0  0  0  0  0  0  0
  -28.7550   -9.3070  -32.8080 N   0  0  0  0  0  0  0  0  0  0  0  0
  -28.0960   -5.9390  -31.9420 C   0  0  0  0  0  0  0  0  0  0  0  0
  -27.5440   -4.6760  -31.9860 C   0  0  0  0  0  0  0  0  0  0  0  0
  -26.6530   -4.2540  -32.8870 N   0  0  0  0  0  0  0  0  0  0  0  0
  -25.2315   -4.2278  -32.7133 N   0  0  0  0  0  0  0  0  0  0  0  0
  1  3  1  0
  1  2  2  3
  2  4  1  0
  4  5  2  3
  5  6  1  0
  6  7  1  0
M  END
>  <name>  (16) 
Car Nac Nd0 Car Car Nd0 Nac

>  <indices>  (16) 
[0, 1, 2]

>  <dummy>  (16) 
2

>  <tasks>  (16) 
probe_placing close_aromatic_ring close_aromatic_ring close_aromatic_ring

>  <current_task>  (16) 
close_aromatic_ring

>  <prot_clashes>  (16) 
3

>  <NBS phar>  (16) 
0.1

>  <NBS_non-phar>  (16) 
0.5834510723749796

>  <NBS>  (16) 
0.6834510723749796

>  <source_stage>  (16) 
scored

>  <source_iter>  (16) 
3

>  <source_parent_mol>  (16) 
2

>  <source_scenario>  (16) 
1 0 2

>  <source_rank_in_scored_call>  (16) 
0

>  <source_current_task>  (16) 
close_aromatic_ring

>  <scenario>  (16) 
1 0 2

>  <rotatable_bond_torsions>  (16) 
0,1,3,4

>  <reason_to_skip>  (16) 
incorrect arom ring closing

$$$$

     RDKit          3D

  7  6  0  0  0  0  0  0  0  0999 V2000
  -28.7320   -8.0270  -32.2350 C   0  0  0  0  0  0  0  0  0  0  0  0
  -27.9040   -7.0830  -32.7640 N   0  0  0  0  0  0  0  0  0  0  0  0
  -28.7550   -9.3070  -32.8080 N   0  0  0  0  0  0  0  0  0  0  0  0
  -28.0960   -5.9390  -31.9420 C   0  0  0  0  0  0  0  0  0  0  0  0
  -27.5440   -4.6760  -31.9860 C   0  0  0  0  0  0  0  0  0  0  0  0
  -26.6530   -4.2540  -32.8870 N   0  0  0  0  0  0  0  0  0  0  0  0
  -26.9787   -3.8000  -34.1917 N   0  0  0  0  0  0  0  0  0  0  0  0
  1  3  1  0
  1  2  2  3
  2  4  1  0
  4  5  2  3
  5  6  1  0
  6  7  1  0
M  END
>  <name>  (17) 
Car Nac Nd0 Car Car Nd0 Nac

>  <indices>  (17) 
[0, 1, 2]

>  <dummy>  (17) 
2

>  <tasks>  (17) 
probe_placing close_aromatic_ring close_aromatic_ring close_aromatic_ring

>  <current_task>  (17) 
close_aromatic_ring

>  <prot_clashes>  (17) 
3

>  <NBS phar>  (17) 
0.1

>  <NBS_non-phar>  (17) 
0.5834510723749796

>  <NBS>  (17) 
0.6834510723749796

>  <source_stage>  (17) 
scored

>  <source_iter>  (17) 
3

>  <source_parent_mol>  (17) 
2

>  <source_scenario>  (17) 
1 0 2

>  <source_rank_in_scored_call>  (17) 
0

>  <source_current_task>  (17) 
close_aromatic_ring

>  <scenario>  (17) 
1 0 2

>  <rotatable_bond_torsions>  (17) 
0,1,3,4

>  <reason_to_skip>  (17) 
incorrect arom ring closing

$$$$

     RDKit          3D

  7  6  0  0  0  0  0  0  0  0999 V2000
  -28.7320   -8.0270  -32.2350 C   0  0  0  0  0  0  0  0  0  0  0  0
  -27.9040   -7.0830  -32.7640 N   0  0  0  0  0  0  0  0  0  0  0  0
  -28.7550   -9.3070  -32.8080 N   0  0  0  0  0  0  0  0  0  0  0  0
  -28.0960   -5.9390  -31.9420 C   0  0  0  0  0  0  0  0  0  0  0  0
  -27.5440   -4.6760  -31.9860 C   0  0  0  0  0  0  0  0  0  0  0  0
  -26.6530   -4.2540  -32.8870 N   0  0  0  0  0  0  0  0  0  0  0  0
  -26.4660   -4.5135  -34.0779 N   0  0  0  0  0  0  0  0  0  0  0  0
  1  3  1  0
  1  2  2  3
  2  4  1  0
  4  5  2  3
  5  6  1  0
  6  7  1  0
M  END
>  <name>  (18) 
Car Nac Nd0 Car Car Nd0 Nac

>  <indices>  (18) 
[0, 1, 2]

>  <dummy>  (18) 
2

>  <tasks>  (18) 
probe_placing close_aromatic_ring close_aromatic_ring close_aromatic_ring

>  <current_task>  (18) 
close_aromatic_ring

>  <prot_clashes>  (18) 
3

>  <NBS phar>  (18) 
0.1

>  <NBS_non-phar>  (18) 
0.5834510723749796

>  <NBS>  (18) 
0.6834510723749796

>  <source_stage>  (18) 
scored

>  <source_iter>  (18) 
3

>  <source_parent_mol>  (18) 
2

>  <source_scenario>  (18) 
1 0 2

>  <source_rank_in_scored_call>  (18) 
0

>  <source_current_task>  (18) 
close_aromatic_ring

>  <scenario>  (18) 
1 0 2

>  <rotatable_bond_torsions>  (18) 
0,1,3,4

>  <reason_to_skip>  (18) 
incorrect arom ring closing

$$$$

     RDKit          3D

  7  6  0  0  0  0  0  0  0  0999 V2000
  -28.7320   -8.0270  -32.2350 C   0  0  0  0  0  0  0  0  0  0  0  0
  -27.9040   -7.0830  -32.7640 N   0  0  0  0  0  0  0  0  0  0  0  0
  -28.7550   -9.3070  -32.8080 N   0  0  0  0  0  0  0  0  0  0  0  0
  -28.0960   -5.9390  -31.9420 C   0  0  0  0  0  0  0  0  0  0  0  0
  -27.5440   -4.6760  -31.9860 C   0  0  0  0  0  0  0  0  0  0  0  0
  -26.6530   -4.2540  -32.8870 N   0  0  0  0  0  0  0  0  0  0  0  0
    0.0000    0.0000    0.0000 N   0  0  0  0  0  0  0  0  0  0  0  0
  1  3  1  0
  1  2  2  3
  2  4  1  0
  4  5  2  3
  5  6  1  0
  6  7  1  0
M  END
>  <name>  (19) 
Car Nac Nd0 Car Car Nd0 Nd0

>  <indices>  (19) 
[0, 1, 2]

>  <dummy>  (19) 
2

>  <tasks>  (19) 
probe_placing close_aromatic_ring close_aromatic_ring close_aromatic_ring

>  <current_task>  (19) 
close_aromatic_ring

>  <prot_clashes>  (19) 
3

>  <NBS phar>  (19) 
0.1

>  <NBS_non-phar>  (19) 
0.5834510723749796

>  <NBS>  (19) 
0.6834510723749796

>  <source_stage>  (19) 
scored

>  <source_iter>  (19) 
3

>  <source_parent_mol>  (19) 
2

>  <source_scenario>  (19) 
1 0 2

>  <source_rank_in_scored_call>  (19) 
0

>  <source_current_task>  (19) 
close_aromatic_ring

>  <scenario>  (19) 
1 0 2

>  <rotatable_bond_torsions>  (19) 
0,1,3,4

>  <reason_to_skip>  (19) 
some_atom_counter_exceeded

$$$$

     RDKit          3D

  7  6  0  0  0  0  0  0  0  0999 V2000
  -28.7320   -8.0270  -32.2350 C   0  0  0  0  0  0  0  0  0  0  0  0
  -27.9040   -7.0830  -32.7640 N   0  0  0  0  0  0  0  0  0  0  0  0
  -28.7550   -9.3070  -32.8080 N   0  0  0  0  0  0  0  0  0  0  0  0
  -28.0960   -5.9390  -31.9420 C   0  0  0  0  0  0  0  0  0  0  0  0
  -27.5440   -4.6760  -31.9860 C   0  0  0  0  0  0  0  0  0  0  0  0
  -26.6530   -4.2540  -32.8870 N   0  0  0  0  0  0  0  0  0  0  0  0
    0.0000    0.0000    0.0000 S   0  0  0  0  0  0  0  0  0  0  0  0
  1  3  1  0
  1  2  2  3
  2  4  1  0
  4  5  2  3
  5  6  1  0
  6  7  1  0
M  END
>  <name>  (20) 
Car Nac Nd0 Car Car Nd0 Sul

>  <indices>  (20) 
[0, 1, 2]

>  <dummy>  (20) 
2

>  <tasks>  (20) 
probe_placing close_aromatic_ring close_aromatic_ring close_aromatic_ring

>  <current_task>  (20) 
close_aromatic_ring

>  <prot_clashes>  (20) 
3

>  <NBS phar>  (20) 
0.1

>  <NBS_non-phar>  (20) 
0.5834510723749796

>  <NBS>  (20) 
0.6834510723749796

>  <source_stage>  (20) 
scored

>  <source_iter>  (20) 
3

>  <source_parent_mol>  (20) 
2

>  <source_scenario>  (20) 
1 0 2

>  <source_rank_in_scored_call>  (20) 
0

>  <source_current_task>  (20) 
close_aromatic_ring

>  <scenario>  (20) 
1 0 2

>  <rotatable_bond_torsions>  (20) 
0,1,3,4

>  <reason_to_skip>  (20) 
some_atom_counter_exceeded

$$$$

     RDKit          3D

  7  6  0  0  0  0  0  0  0  0999 V2000
  -28.7320   -8.0270  -32.2350 C   0  0  0  0  0  0  0  0  0  0  0  0
  -27.9040   -7.0830  -32.7640 N   0  0  0  0  0  0  0  0  0  0  0  0
  -28.7550   -9.3070  -32.8080 N   0  0  0  0  0  0  0  0  0  0  0  0
  -28.0960   -5.9390  -31.9420 C   0  0  0  0  0  0  0  0  0  0  0  0
  -27.5440   -4.6760  -31.9860 C   0  0  0  0  0  0  0  0  0  0  0  0
  -26.6530   -4.2540  -32.8870 N   0  0  0  0  0  0  0  0  0  0  0  0
  -26.5427   -5.4947  -33.6562 C   0  0  0  0  0  0  0  0  0  0  0  0
  1  3  1  0
  1  2  2  3
  2  4  1  0
  4  5  2  3
  5  6  1  0
  6  7  1  0
M  END
>  <name>  (21) 
Car Nac Nd0 Car Car Nd0 Car

>  <indices>  (21) 
[0, 1, 2]

>  <dummy>  (21) 
2

>  <tasks>  (21) 
probe_placing close_aromatic_ring close_aromatic_ring close_aromatic_ring

>  <current_task>  (21) 
close_aromatic_ring

>  <prot_clashes>  (21) 
3

>  <NBS phar>  (21) 
0.1

>  <NBS_non-phar>  (21) 
0.5834510723749796

>  <NBS>  (21) 
0.6834510723749796

>  <source_stage>  (21) 
scored

>  <source_iter>  (21) 
3

>  <source_parent_mol>  (21) 
2

>  <source_scenario>  (21) 
1 0 2

>  <source_rank_in_scored_call>  (21) 
0

>  <source_current_task>  (21) 
close_aromatic_ring

>  <scenario>  (21) 
1 0 2

>  <rotatable_bond_torsions>  (21) 
0,1,3,4

>  <reason_to_skip>  (21) 
bad angles

$$$$

     RDKit          3D

  7  6  0  0  0  0  0  0  0  0999 V2000
  -28.7320   -8.0270  -32.2350 C   0  0  0  0  0  0  0  0  0  0  0  0
  -27.9040   -7.0830  -32.7640 N   0  0  0  0  0  0  0  0  0  0  0  0
  -28.7550   -9.3070  -32.8080 N   0  0  0  0  0  0  0  0  0  0  0  0
  -28.0960   -5.9390  -31.9420 C   0  0  0  0  0  0  0  0  0  0  0  0
  -27.5440   -4.6760  -31.9860 C   0  0  0  0  0  0  0  0  0  0  0  0
  -26.6530   -4.2540  -32.8870 N   0  0  0  0  0  0  0  0  0  0  0  0
  -26.2228   -5.1466  -33.8593 C   0  0  0  0  0  0  0  0  0  0  0  0
  1  3  1  0
  1  2  2  3
  2  4  1  0
  4  5  2  3
  5  6  1  0
  6  7  1  0
M  END
>  <name>  (22) 
Car Nac Nd0 Car Car Nd0 Car

>  <indices>  (22) 
[0, 1, 2]

>  <dummy>  (22) 
2

>  <tasks>  (22) 
probe_placing close_aromatic_ring close_aromatic_ring close_aromatic_ring

>  <current_task>  (22) 
close_aromatic_ring

>  <prot_clashes>  (22) 
3

>  <NBS phar>  (22) 
0.1

>  <NBS_non-phar>  (22) 
0.5834510723749796

>  <NBS>  (22) 
0.6834510723749796

>  <source_stage>  (22) 
scored

>  <source_iter>  (22) 
3

>  <source_parent_mol>  (22) 
2

>  <source_scenario>  (22) 
1 0 2

>  <source_rank_in_scored_call>  (22) 
0

>  <source_current_task>  (22) 
close_aromatic_ring

>  <scenario>  (22) 
1 0 2

>  <rotatable_bond_torsions>  (22) 
0,1,3,4

>  <reason_to_skip>  (22) 
subgraph mismatch

$$$$

     RDKit          3D

  6  5  0  0  0  0  0  0  0  0999 V2000
  -28.0390   -7.4530  -31.7250 C   0  0  0  0  0  0  0  0  0  0  0  0
  -27.5090   -6.5100  -32.5550 N   0  0  0  0  0  0  0  0  0  0  0  0
  -28.0120   -8.7980  -32.1210 N   0  0  0  0  0  0  0  0  0  0  0  0
  -27.6630   -5.2870  -31.8500 C   0  0  0  0  0  0  0  0  0  0  0  0
  -27.1370   -4.0430  -32.4270 C   0  0  0  0  0  0  0  0  0  0  0  0
  -27.3134   -2.9050  -31.6998 C   0  0  0  0  0  0  0  0  0  0  0  0
  1  2  2  3
  1  3  1  0
  2  4  1  0
  4  5  1  0
  5  6  1  0
M  END
>  <name>  (1) 
Car Nac Nd0 Car Car Car

>  <indices>  (1) 
[0, 1, 2]

>  <dummy>  (1) 
2

>  <tasks>  (1) 
probe_placing close_aromatic_ring close_aromatic_ring

>  <current_task>  (1) 
close_aromatic_ring

>  <prot_clashes>  (1) 
2

>  <NBS phar>  (1) 
0.1

>  <NBS_non-phar>  (1) 
0.8467942237854004

>  <NBS>  (1) 
0.9467942237854003

>  <source_stage>  (1) 
scored

>  <source_iter>  (1) 
2

>  <source_parent_mol>  (1) 
0

>  <source_scenario>  (1) 
1 0

>  <source_rank_in_scored_call>  (1) 
6

>  <source_current_task>  (1) 
close_aromatic_ring

>  <scenario>  (1) 
1 0

>  <rotatable_bond_torsions>  (1) 
0,1,3,4

>  <reason_to_skip>  (1) 
incorrect arom ring closing

$$$$

     RDKit          3D

  6  5  0  0  0  0  0  0  0  0999 V2000
  -28.0390   -7.4530  -31.7250 C   0  0  0  0  0  0  0  0  0  0  0  0
  -27.5090   -6.5100  -32.5550 N   0  0  0  0  0  0  0  0  0  0  0  0
  -28.0120   -8.7980  -32.1210 N   0  0  0  0  0  0  0  0  0  0  0  0
  -27.6630   -5.2870  -31.8500 C   0  0  0  0  0  0  0  0  0  0  0  0
  -27.1370   -4.0430  -32.4270 C   0  0  0  0  0  0  0  0  0  0  0  0
  -27.2868   -2.8924  -31.7643 C   0  0  0  0  0  0  0  0  0  0  0  0
  1  2  2  3
  1  3  1  0
  2  4  1  0
  4  5  1  0
  5  6  2  0
M  END
>  <name>  (2) 
Car Nac Nd0 Car Car Car

>  <indices>  (2) 
[0, 1, 2]

>  <dummy>  (2) 
2

>  <tasks>  (2) 
probe_placing close_aromatic_ring close_aromatic_ring

>  <current_task>  (2) 
close_aromatic_ring

>  <prot_clashes>  (2) 
2

>  <NBS phar>  (2) 
0.1

>  <NBS_non-phar>  (2) 
0.8467942237854004

>  <NBS>  (2) 
0.9467942237854003

>  <source_stage>  (2) 
scored

>  <source_iter>  (2) 
2

>  <source_parent_mol>  (2) 
0

>  <source_scenario>  (2) 
1 0

>  <source_rank_in_scored_call>  (2) 
6

>  <source_current_task>  (2) 
close_aromatic_ring

>  <scenario>  (2) 
1 0

>  <rotatable_bond_torsions>  (2) 
0,1,3,4

>  <reason_to_skip>  (2) 
incorrect arom ring closing

$$$$

     RDKit          3D

  6  5  0  0  0  0  0  0  0  0999 V2000
  -28.0390   -7.4530  -31.7250 C   0  0  0  0  0  0  0  0  0  0  0  0
  -27.5090   -6.5100  -32.5550 N   0  0  0  0  0  0  0  0  0  0  0  0
  -28.0120   -8.7980  -32.1210 N   0  0  0  0  0  0  0  0  0  0  0  0
  -27.6630   -5.2870  -31.8500 C   0  0  0  0  0  0  0  0  0  0  0  0
  -27.1370   -4.0430  -32.4270 C   0  0  0  0  0  0  0  0  0  0  0  0
  -27.3005   -2.9057  -31.7093 N   0  0  0  0  0  0  0  0  0  0  0  0
  1  2  2  3
  1  3  1  0
  2  4  1  0
  4  5  1  0
  5  6  2  0
M  END
>  <name>  (3) 
Car Nac Nd0 Car Car Nac

>  <indices>  (3) 
[0, 1, 2]

>  <dummy>  (3) 
2

>  <tasks>  (3) 
probe_placing close_aromatic_ring close_aromatic_ring

>  <current_task>  (3) 
close_aromatic_ring

>  <prot_clashes>  (3) 
2

>  <NBS phar>  (3) 
0.1

>  <NBS_non-phar>  (3) 
0.8467942237854004

>  <NBS>  (3) 
0.9467942237854003

>  <source_stage>  (3) 
scored

>  <source_iter>  (3) 
2

>  <source_parent_mol>  (3) 
0

>  <source_scenario>  (3) 
1 0

>  <source_rank_in_scored_call>  (3) 
6

>  <source_current_task>  (3) 
close_aromatic_ring

>  <scenario>  (3) 
1 0

>  <rotatable_bond_torsions>  (3) 
0,1,3,4

>  <reason_to_skip>  (3) 
incorrect arom ring closing

$$$$

     RDKit          3D

  6  5  0  0  0  0  0  0  0  0999 V2000
  -28.0390   -7.4530  -31.7250 C   0  0  0  0  0  0  0  0  0  0  0  0
  -27.5090   -6.5100  -32.5550 N   0  0  0  0  0  0  0  0  0  0  0  0
  -28.0120   -8.7980  -32.1210 N   0  0  0  0  0  0  0  0  0  0  0  0
  -27.6630   -5.2870  -31.8500 C   0  0  0  0  0  0  0  0  0  0  0  0
  -27.1370   -4.0430  -32.4270 C   0  0  0  0  0  0  0  0  0  0  0  0
  -26.5897   -4.6137  -33.6599 N   0  0  0  0  0  0  0  0  0  0  0  0
  1  2  2  3
  1  3  1  0
  2  4  1  0
  4  5  1  0
  5  6  1  0
M  END
>  <name>  (4) 
Car Nac Nd0 Car Car Nac

>  <indices>  (4) 
[0, 1, 2]

>  <dummy>  (4) 
2

>  <tasks>  (4) 
probe_placing close_aromatic_ring close_aromatic_ring

>  <current_task>  (4) 
close_aromatic_ring

>  <prot_clashes>  (4) 
2

>  <NBS phar>  (4) 
0.1

>  <NBS_non-phar>  (4) 
0.8467942237854004

>  <NBS>  (4) 
0.9467942237854003

>  <source_stage>  (4) 
scored

>  <source_iter>  (4) 
2

>  <source_parent_mol>  (4) 
0

>  <source_scenario>  (4) 
1 0

>  <source_rank_in_scored_call>  (4) 
6

>  <source_current_task>  (4) 
close_aromatic_ring

>  <scenario>  (4) 
1 0

>  <rotatable_bond_torsions>  (4) 
0,1,3,4

>  <reason_to_skip>  (4) 
bad angles

$$$$

     RDKit          3D

  6  5  0  0  0  0  0  0  0  0999 V2000
  -28.0390   -7.4530  -31.7250 C   0  0  0  0  0  0  0  0  0  0  0  0
  -27.5090   -6.5100  -32.5550 N   0  0  0  0  0  0  0  0  0  0  0  0
  -28.0120   -8.7980  -32.1210 N   0  0  0  0  0  0  0  0  0  0  0  0
  -27.6630   -5.2870  -31.8500 C   0  0  0  0  0  0  0  0  0  0  0  0
  -27.1370   -4.0430  -32.4270 C   0  0  0  0  0  0  0  0  0  0  0  0
  -27.3977   -2.9576  -31.5653 N   0  0  0  0  0  0  0  0  0  0  0  0
  1  2  2  3
  1  3  1  0
  2  4  1  0
  4  5  1  0
  5  6  1  0
M  END
>  <name>  (5) 
Car Nac Nd0 Car Car Nac

>  <indices>  (5) 
[0, 1, 2]

>  <dummy>  (5) 
2

>  <tasks>  (5) 
probe_placing close_aromatic_ring close_aromatic_ring

>  <current_task>  (5) 
close_aromatic_ring

>  <prot_clashes>  (5) 
2

>  <NBS phar>  (5) 
0.1

>  <NBS_non-phar>  (5) 
0.8467942237854004

>  <NBS>  (5) 
0.9467942237854003

>  <source_stage>  (5) 
scored

>  <source_iter>  (5) 
2

>  <source_parent_mol>  (5) 
0

>  <source_scenario>  (5) 
1 0

>  <source_rank_in_scored_call>  (5) 
6

>  <source_current_task>  (5) 
close_aromatic_ring

>  <scenario>  (5) 
1 0

>  <rotatable_bond_torsions>  (5) 
0,1,3,4

>  <reason_to_skip>  (5) 
incorrect arom ring closing

$$$$

     RDKit          3D

  6  5  0  0  0  0  0  0  0  0999 V2000
  -28.0390   -7.4530  -31.7250 C   0  0  0  0  0  0  0  0  0  0  0  0
  -27.5090   -6.5100  -32.5550 N   0  0  0  0  0  0  0  0  0  0  0  0
  -28.0120   -8.7980  -32.1210 N   0  0  0  0  0  0  0  0  0  0  0  0
  -27.6630   -5.2870  -31.8500 C   0  0  0  0  0  0  0  0  0  0  0  0
  -27.1370   -4.0430  -32.4270 C   0  0  0  0  0  0  0  0  0  0  0  0
  -26.5562   -3.1135  -31.5932 C   0  0  0  0  0  0  0  0  0  0  0  0
  1  2  2  3
  1  3  1  0
  2  4  1  0
  4  5  1  0
  5  6  1  0
M  END
>  <name>  (6) 
Car Nac Nd0 Car Car Car

>  <indices>  (6) 
[0, 1, 2]

>  <dummy>  (6) 
2

>  <tasks>  (6) 
probe_placing close_aromatic_ring close_aromatic_ring

>  <current_task>  (6) 
close_aromatic_ring

>  <prot_clashes>  (6) 
2

>  <NBS phar>  (6) 
0.1

>  <NBS_non-phar>  (6) 
0.8467942237854004

>  <NBS>  (6) 
0.9467942237854003

>  <source_stage>  (6) 
scored

>  <source_iter>  (6) 
2

>  <source_parent_mol>  (6) 
0

>  <source_scenario>  (6) 
1 0

>  <source_rank_in_scored_call>  (6) 
6

>  <source_current_task>  (6) 
close_aromatic_ring

>  <scenario>  (6) 
1 0

>  <rotatable_bond_torsions>  (6) 
0,1,3,4

>  <reason_to_skip>  (6) 
incorrect arom ring closing

$$$$

     RDKit          3D

  6  5  0  0  0  0  0  0  0  0999 V2000
  -28.0390   -7.4530  -31.7250 C   0  0  0  0  0  0  0  0  0  0  0  0
  -27.5090   -6.5100  -32.5550 N   0  0  0  0  0  0  0  0  0  0  0  0
  -28.0120   -8.7980  -32.1210 N   0  0  0  0  0  0  0  0  0  0  0  0
  -27.6630   -5.2870  -31.8500 C   0  0  0  0  0  0  0  0  0  0  0  0
  -27.1370   -4.0430  -32.4270 C   0  0  0  0  0  0  0  0  0  0  0  0
  -26.9747   -3.8627  -33.7930 C   0  0  0  0  0  0  0  0  0  0  0  0
  1  2  2  3
  1  3  1  0
  2  4  1  0
  4  5  1  0
  5  6  2  0
M  END
>  <name>  (7) 
Car Nac Nd0 Car Car Car

>  <indices>  (7) 
[0, 1, 2]

>  <dummy>  (7) 
2

>  <tasks>  (7) 
probe_placing close_aromatic_ring close_aromatic_ring

>  <current_task>  (7) 
close_aromatic_ring

>  <prot_clashes>  (7) 
2

>  <NBS phar>  (7) 
0.1

>  <NBS_non-phar>  (7) 
0.8467942237854004

>  <NBS>  (7) 
0.9467942237854003

>  <source_stage>  (7) 
scored

>  <source_iter>  (7) 
2

>  <source_parent_mol>  (7) 
0

>  <source_scenario>  (7) 
1 0

>  <source_rank_in_scored_call>  (7) 
6

>  <source_current_task>  (7) 
close_aromatic_ring

>  <scenario>  (7) 
1 0

>  <rotatable_bond_torsions>  (7) 
0,1,3,4

>  <reason_to_skip>  (7) 
incorrect arom ring closing

$$$$

     RDKit          3D

  6  5  0  0  0  0  0  0  0  0999 V2000
  -28.0390   -7.4530  -31.7250 C   0  0  0  0  0  0  0  0  0  0  0  0
  -27.5090   -6.5100  -32.5550 N   0  0  0  0  0  0  0  0  0  0  0  0
  -28.0120   -8.7980  -32.1210 N   0  0  0  0  0  0  0  0  0  0  0  0
  -27.6630   -5.2870  -31.8500 C   0  0  0  0  0  0  0  0  0  0  0  0
  -27.1370   -4.0430  -32.4270 C   0  0  0  0  0  0  0  0  0  0  0  0
  -26.7025   -3.0303  -31.5390 C   0  0  0  0  0  0  0  0  0  0  0  0
  1  2  2  3
  1  3  1  0
  2  4  1  0
  4  5  1  0
  5  6  1  0
M  END
>  <name>  (8) 
Car Nac Nd0 Car Car Car

>  <indices>  (8) 
[0, 1, 2]

>  <dummy>  (8) 
2

>  <tasks>  (8) 
probe_placing close_aromatic_ring close_aromatic_ring

>  <current_task>  (8) 
close_aromatic_ring

>  <prot_clashes>  (8) 
2

>  <NBS phar>  (8) 
0.1

>  <NBS_non-phar>  (8) 
0.8467942237854004

>  <NBS>  (8) 
0.9467942237854003

>  <source_stage>  (8) 
scored

>  <source_iter>  (8) 
2

>  <source_parent_mol>  (8) 
0

>  <source_scenario>  (8) 
1 0

>  <source_rank_in_scored_call>  (8) 
6

>  <source_current_task>  (8) 
close_aromatic_ring

>  <scenario>  (8) 
1 0

>  <rotatable_bond_torsions>  (8) 
0,1,3,4

>  <reason_to_skip>  (8) 
incorrect arom ring closing

$$$$

     RDKit          3D

  6  5  0  0  0  0  0  0  0  0999 V2000
  -28.0390   -7.4530  -31.7250 C   0  0  0  0  0  0  0  0  0  0  0  0
  -27.5090   -6.5100  -32.5550 N   0  0  0  0  0  0  0  0  0  0  0  0
  -28.0120   -8.7980  -32.1210 N   0  0  0  0  0  0  0  0  0  0  0  0
  -27.6630   -5.2870  -31.8500 C   0  0  0  0  0  0  0  0  0  0  0  0
  -27.1370   -4.0430  -32.4270 C   0  0  0  0  0  0  0  0  0  0  0  0
  -27.1510   -2.8474  -32.0653 N   0  0  0  0  0  0  0  0  0  0  0  0
  1  2  2  3
  1  3  1  0
  2  4  1  0
  4  5  1  0
  5  6  1  0
M  END
>  <name>  (9) 
Car Nac Nd0 Car Car Nd0

>  <indices>  (9) 
[0, 1, 2]

>  <dummy>  (9) 
2

>  <tasks>  (9) 
probe_placing close_aromatic_ring close_aromatic_ring

>  <current_task>  (9) 
close_aromatic_ring

>  <prot_clashes>  (9) 
2

>  <NBS phar>  (9) 
0.1

>  <NBS_non-phar>  (9) 
0.8467942237854004

>  <NBS>  (9) 
0.9467942237854003

>  <source_stage>  (9) 
scored

>  <source_iter>  (9) 
2

>  <source_parent_mol>  (9) 
0

>  <source_scenario>  (9) 
1 0

>  <source_rank_in_scored_call>  (9) 
6

>  <source_current_task>  (9) 
close_aromatic_ring

>  <scenario>  (9) 
1 0

>  <rotatable_bond_torsions>  (9) 
0,1,3,4

>  <reason_to_skip>  (9) 
incorrect arom ring closing

$$$$

     RDKit          3D

  6  5  0  0  0  0  0  0  0  0999 V2000
  -28.0390   -7.4530  -31.7250 C   0  0  0  0  0  0  0  0  0  0  0  0
  -27.5090   -6.5100  -32.5550 N   0  0  0  0  0  0  0  0  0  0  0  0
  -28.0120   -8.7980  -32.1210 N   0  0  0  0  0  0  0  0  0  0  0  0
  -27.6630   -5.2870  -31.8500 C   0  0  0  0  0  0  0  0  0  0  0  0
  -27.1370   -4.0430  -32.4270 C   0  0  0  0  0  0  0  0  0  0  0  0
  -26.6195   -4.6487  -33.6257 N   0  0  0  0  0  0  0  0  0  0  0  0
  1  2  2  3
  1  3  1  0
  2  4  1  0
  4  5  1  0
  5  6  1  0
M  END
>  <name>  (10) 
Car Nac Nd0 Car Car Nac

>  <indices>  (10) 
[0, 1, 2]

>  <dummy>  (10) 
2

>  <tasks>  (10) 
probe_placing close_aromatic_ring close_aromatic_ring

>  <current_task>  (10) 
close_aromatic_ring

>  <prot_clashes>  (10) 
2

>  <NBS phar>  (10) 
0.1

>  <NBS_non-phar>  (10) 
0.8467942237854004

>  <NBS>  (10) 
0.9467942237854003

>  <source_stage>  (10) 
scored

>  <source_iter>  (10) 
2

>  <source_parent_mol>  (10) 
0

>  <source_scenario>  (10) 
1 0

>  <source_rank_in_scored_call>  (10) 
6

>  <source_current_task>  (10) 
close_aromatic_ring

>  <scenario>  (10) 
1 0

>  <rotatable_bond_torsions>  (10) 
0,1,3,4

>  <reason_to_skip>  (10) 
bad angles

$$$$

     RDKit          3D

  6  5  0  0  0  0  0  0  0  0999 V2000
  -28.0390   -7.4530  -31.7250 C   0  0  0  0  0  0  0  0  0  0  0  0
  -27.5090   -6.5100  -32.5550 N   0  0  0  0  0  0  0  0  0  0  0  0
  -28.0120   -8.7980  -32.1210 N   0  0  0  0  0  0  0  0  0  0  0  0
  -27.6630   -5.2870  -31.8500 C   0  0  0  0  0  0  0  0  0  0  0  0
  -27.1370   -4.0430  -32.4270 C   0  0  0  0  0  0  0  0  0  0  0  0
  -27.4001   -2.9895  -31.6106 N   0  0  0  0  0  0  0  0  0  0  0  0
  1  2  2  3
  1  3  1  0
  2  4  1  0
  4  5  1  0
  5  6  2  0
M  END
>  <name>  (11) 
Car Nac Nd0 Car Car Nac

>  <indices>  (11) 
[0, 1, 2]

>  <dummy>  (11) 
2

>  <tasks>  (11) 
probe_placing close_aromatic_ring close_aromatic_ring

>  <current_task>  (11) 
close_aromatic_ring

>  <prot_clashes>  (11) 
2

>  <NBS phar>  (11) 
0.1

>  <NBS_non-phar>  (11) 
0.8467942237854004

>  <NBS>  (11) 
0.9467942237854003

>  <source_stage>  (11) 
scored

>  <source_iter>  (11) 
2

>  <source_parent_mol>  (11) 
0

>  <source_scenario>  (11) 
1 0

>  <source_rank_in_scored_call>  (11) 
6

>  <source_current_task>  (11) 
close_aromatic_ring

>  <scenario>  (11) 
1 0

>  <rotatable_bond_torsions>  (11) 
0,1,3,4

>  <reason_to_skip>  (11) 
incorrect arom ring closing

$$$$

     RDKit          3D

  6  5  0  0  0  0  0  0  0  0999 V2000
  -28.0390   -7.4530  -31.7250 C   0  0  0  0  0  0  0  0  0  0  0  0
  -27.5090   -6.5100  -32.5550 N   0  0  0  0  0  0  0  0  0  0  0  0
  -28.0120   -8.7980  -32.1210 N   0  0  0  0  0  0  0  0  0  0  0  0
  -27.6630   -5.2870  -31.8500 C   0  0  0  0  0  0  0  0  0  0  0  0
  -27.1370   -4.0430  -32.4270 C   0  0  0  0  0  0  0  0  0  0  0  0
  -27.2813   -2.8733  -31.7351 C   0  0  0  0  0  0  0  0  0  0  0  0
  1  2  2  3
  1  3  1  0
  2  4  1  0
  4  5  1  0
  5  6  2  0
M  END
>  <name>  (12) 
Car Nac Nd0 Car Car Car

>  <indices>  (12) 
[0, 1, 2]

>  <dummy>  (12) 
2

>  <tasks>  (12) 
probe_placing close_aromatic_ring close_aromatic_ring

>  <current_task>  (12) 
close_aromatic_ring

>  <prot_clashes>  (12) 
2

>  <NBS phar>  (12) 
0.1

>  <NBS_non-phar>  (12) 
0.8467942237854004

>  <NBS>  (12) 
0.9467942237854003

>  <source_stage>  (12) 
scored

>  <source_iter>  (12) 
2

>  <source_parent_mol>  (12) 
0

>  <source_scenario>  (12) 
1 0

>  <source_rank_in_scored_call>  (12) 
6

>  <source_current_task>  (12) 
close_aromatic_ring

>  <scenario>  (12) 
1 0

>  <rotatable_bond_torsions>  (12) 
0,1,3,4

>  <reason_to_skip>  (12) 
incorrect arom ring closing

$$$$

     RDKit          3D

  6  5  0  0  0  0  0  0  0  0999 V2000
  -28.0390   -7.4530  -31.7250 C   0  0  0  0  0  0  0  0  0  0  0  0
  -27.5090   -6.5100  -32.5550 N   0  0  0  0  0  0  0  0  0  0  0  0
  -28.0120   -8.7980  -32.1210 N   0  0  0  0  0  0  0  0  0  0  0  0
  -27.6630   -5.2870  -31.8500 C   0  0  0  0  0  0  0  0  0  0  0  0
  -27.1370   -4.0430  -32.4270 C   0  0  0  0  0  0  0  0  0  0  0  0
  -26.5856   -4.5708  -33.6246 N   0  0  0  0  0  0  0  0  0  0  0  0
  1  2  2  3
  1  3  1  0
  2  4  1  0
  4  5  1  0
  5  6  1  0
M  END
>  <name>  (13) 
Car Nac Nd0 Car Car Nd0

>  <indices>  (13) 
[0, 1, 2]

>  <dummy>  (13) 
2

>  <tasks>  (13) 
probe_placing close_aromatic_ring close_aromatic_ring

>  <current_task>  (13) 
close_aromatic_ring

>  <prot_clashes>  (13) 
2

>  <NBS phar>  (13) 
0.1

>  <NBS_non-phar>  (13) 
0.8467942237854004

>  <NBS>  (13) 
0.9467942237854003

>  <source_stage>  (13) 
scored

>  <source_iter>  (13) 
2

>  <source_parent_mol>  (13) 
0

>  <source_scenario>  (13) 
1 0

>  <source_rank_in_scored_call>  (13) 
6

>  <source_current_task>  (13) 
close_aromatic_ring

>  <scenario>  (13) 
1 0

>  <rotatable_bond_torsions>  (13) 
0,1,3,4

>  <reason_to_skip>  (13) 
bad angles

$$$$

     RDKit          3D

  6  5  0  0  0  0  0  0  0  0999 V2000
  -28.0390   -7.4530  -31.7250 C   0  0  0  0  0  0  0  0  0  0  0  0
  -27.5090   -6.5100  -32.5550 N   0  0  0  0  0  0  0  0  0  0  0  0
  -28.0120   -8.7980  -32.1210 N   0  0  0  0  0  0  0  0  0  0  0  0
  -27.6630   -5.2870  -31.8500 C   0  0  0  0  0  0  0  0  0  0  0  0
  -27.1370   -4.0430  -32.4270 C   0  0  0  0  0  0  0  0  0  0  0  0
    0.0000    0.0000    0.0000 O   0  0  0  0  0  0  0  0  0  0  0  0
  1  2  2  3
  1  3  1  0
  2  4  1  0
  4  5  1  0
  5  6  1  0
M  END
>  <name>  (14) 
Car Nac Nd0 Car Car O_a

>  <indices>  (14) 
[0, 1, 2]

>  <dummy>  (14) 
2

>  <tasks>  (14) 
probe_placing close_aromatic_ring close_aromatic_ring

>  <current_task>  (14) 
close_aromatic_ring

>  <prot_clashes>  (14) 
2

>  <NBS phar>  (14) 
0.1

>  <NBS_non-phar>  (14) 
0.8467942237854004

>  <NBS>  (14) 
0.9467942237854003

>  <source_stage>  (14) 
scored

>  <source_iter>  (14) 
2

>  <source_parent_mol>  (14) 
0

>  <source_scenario>  (14) 
1 0

>  <source_rank_in_scored_call>  (14) 
6

>  <source_current_task>  (14) 
close_aromatic_ring

>  <scenario>  (14) 
1 0

>  <rotatable_bond_torsions>  (14) 
0,1,3,4

>  <reason_to_skip>  (14) 
some_atom_counter_exceeded

$$$$

     RDKit          3D

  6  5  0  0  0  0  0  0  0  0999 V2000
  -28.0390   -7.4530  -31.7250 C   0  0  0  0  0  0  0  0  0  0  0  0
  -27.5090   -6.5100  -32.5550 N   0  0  0  0  0  0  0  0  0  0  0  0
  -28.0120   -8.7980  -32.1210 N   0  0  0  0  0  0  0  0  0  0  0  0
  -27.6630   -5.2870  -31.8500 C   0  0  0  0  0  0  0  0  0  0  0  0
  -27.1370   -4.0430  -32.4270 C   0  0  0  0  0  0  0  0  0  0  0  0
  -26.5783   -4.6377  -33.6226 C   0  0  0  0  0  0  0  0  0  0  0  0
  1  2  2  3
  1  3  1  0
  2  4  1  0
  4  5  1  0
  5  6  1  0
M  END
>  <name>  (15) 
Car Nac Nd0 Car Car Car

>  <indices>  (15) 
[0, 1, 2]

>  <dummy>  (15) 
2

>  <tasks>  (15) 
probe_placing close_aromatic_ring close_aromatic_ring

>  <current_task>  (15) 
close_aromatic_ring

>  <prot_clashes>  (15) 
2

>  <NBS phar>  (15) 
0.1

>  <NBS_non-phar>  (15) 
0.8467942237854004

>  <NBS>  (15) 
0.9467942237854003

>  <source_stage>  (15) 
scored

>  <source_iter>  (15) 
2

>  <source_parent_mol>  (15) 
0

>  <source_scenario>  (15) 
1 0

>  <source_rank_in_scored_call>  (15) 
6

>  <source_current_task>  (15) 
close_aromatic_ring

>  <scenario>  (15) 
1 0

>  <rotatable_bond_torsions>  (15) 
0,1,3,4

>  <reason_to_skip>  (15) 
bad angles

$$$$

     RDKit          3D

  6  5  0  0  0  0  0  0  0  0999 V2000
  -28.0390   -7.4530  -31.7250 C   0  0  0  0  0  0  0  0  0  0  0  0
  -27.5090   -6.5100  -32.5550 N   0  0  0  0  0  0  0  0  0  0  0  0
  -28.0120   -8.7980  -32.1210 N   0  0  0  0  0  0  0  0  0  0  0  0
  -27.6630   -5.2870  -31.8500 C   0  0  0  0  0  0  0  0  0  0  0  0
  -27.1370   -4.0430  -32.4270 C   0  0  0  0  0  0  0  0  0  0  0  0
    0.0000    0.0000    0.0000 S   0  0  0  0  0  0  0  0  0  0  0  0
  1  2  2  3
  1  3  1  0
  2  4  1  0
  4  5  1  0
  5  6  1  0
M  END
>  <name>  (16) 
Car Nac Nd0 Car Car Sul

>  <indices>  (16) 
[0, 1, 2]

>  <dummy>  (16) 
2

>  <tasks>  (16) 
probe_placing close_aromatic_ring close_aromatic_ring

>  <current_task>  (16) 
close_aromatic_ring

>  <prot_clashes>  (16) 
2

>  <NBS phar>  (16) 
0.1

>  <NBS_non-phar>  (16) 
0.8467942237854004

>  <NBS>  (16) 
0.9467942237854003

>  <source_stage>  (16) 
scored

>  <source_iter>  (16) 
2

>  <source_parent_mol>  (16) 
0

>  <source_scenario>  (16) 
1 0

>  <source_rank_in_scored_call>  (16) 
6

>  <source_current_task>  (16) 
close_aromatic_ring

>  <scenario>  (16) 
1 0

>  <rotatable_bond_torsions>  (16) 
0,1,3,4

>  <reason_to_skip>  (16) 
some_atom_counter_exceeded

$$$$

     RDKit          3D

  6  5  0  0  0  0  0  0  0  0999 V2000
  -28.0390   -7.4530  -31.7250 C   0  0  0  0  0  0  0  0  0  0  0  0
  -27.5090   -6.5100  -32.5550 N   0  0  0  0  0  0  0  0  0  0  0  0
  -28.0120   -8.7980  -32.1210 N   0  0  0  0  0  0  0  0  0  0  0  0
  -27.6630   -5.2870  -31.8500 C   0  0  0  0  0  0  0  0  0  0  0  0
  -27.1370   -4.0430  -32.4270 C   0  0  0  0  0  0  0  0  0  0  0  0
  -27.9018   -2.9509  -32.8811 C   0  0  0  0  0  0  0  0  0  0  0  0
  1  2  2  3
  1  3  1  0
  2  4  1  0
  4  5  1  0
  5  6  1  0
M  END
>  <name>  (17) 
Car Nac Nd0 Car Car Car

>  <indices>  (17) 
[0, 1, 2]

>  <dummy>  (17) 
2

>  <tasks>  (17) 
probe_placing close_aromatic_ring close_aromatic_ring

>  <current_task>  (17) 
close_aromatic_ring

>  <prot_clashes>  (17) 
2

>  <NBS phar>  (17) 
0.1

>  <NBS_non-phar>  (17) 
0.8467942237854004

>  <NBS>  (17) 
0.9467942237854003

>  <source_stage>  (17) 
scored

>  <source_iter>  (17) 
2

>  <source_parent_mol>  (17) 
0

>  <source_scenario>  (17) 
1 0

>  <source_rank_in_scored_call>  (17) 
6

>  <source_current_task>  (17) 
close_aromatic_ring

>  <scenario>  (17) 
1 0

>  <rotatable_bond_torsions>  (17) 
0,1,3,4

>  <reason_to_skip>  (17) 
incorrect arom ring closing

$$$$

     RDKit          3D

  6  5  0  0  0  0  0  0  0  0999 V2000
  -28.0390   -7.4530  -31.7250 C   0  0  0  0  0  0  0  0  0  0  0  0
  -27.5090   -6.5100  -32.5550 N   0  0  0  0  0  0  0  0  0  0  0  0
  -28.0120   -8.7980  -32.1210 N   0  0  0  0  0  0  0  0  0  0  0  0
  -27.6630   -5.2870  -31.8500 C   0  0  0  0  0  0  0  0  0  0  0  0
  -27.1370   -4.0430  -32.4270 C   0  0  0  0  0  0  0  0  0  0  0  0
  -25.7600   -3.6215  -32.5910 C   0  0  0  0  0  0  0  0  0  0  0  0
  1  2  2  3
  1  3  1  0
  2  4  1  0
  4  5  1  0
  5  6  2  0
M  END
>  <name>  (18) 
Car Nac Nd0 Car Car Car

>  <indices>  (18) 
[0, 1, 2]

>  <dummy>  (18) 
2

>  <tasks>  (18) 
probe_placing close_aromatic_ring close_aromatic_ring

>  <current_task>  (18) 
close_aromatic_ring

>  <prot_clashes>  (18) 
2

>  <NBS phar>  (18) 
0.1

>  <NBS_non-phar>  (18) 
0.8467942237854004

>  <NBS>  (18) 
0.9467942237854003

>  <source_stage>  (18) 
scored

>  <source_iter>  (18) 
2

>  <source_parent_mol>  (18) 
0

>  <source_scenario>  (18) 
1 0

>  <source_rank_in_scored_call>  (18) 
6

>  <source_current_task>  (18) 
close_aromatic_ring

>  <scenario>  (18) 
1 0

>  <rotatable_bond_torsions>  (18) 
0,1,3,4

>  <reason_to_skip>  (18) 
incorrect arom ring closing

$$$$

     RDKit          3D

  6  5  0  0  0  0  0  0  0  0999 V2000
  -28.0390   -7.4530  -31.7250 C   0  0  0  0  0  0  0  0  0  0  0  0
  -27.5090   -6.5100  -32.5550 N   0  0  0  0  0  0  0  0  0  0  0  0
  -28.0120   -8.7980  -32.1210 N   0  0  0  0  0  0  0  0  0  0  0  0
  -27.6630   -5.2870  -31.8500 C   0  0  0  0  0  0  0  0  0  0  0  0
  -27.1370   -4.0430  -32.4270 C   0  0  0  0  0  0  0  0  0  0  0  0
  -25.8087   -3.6484  -32.5440 C   0  0  0  0  0  0  0  0  0  0  0  0
  1  2  2  3
  1  3  1  0
  2  4  1  0
  4  5  1  0
  5  6  1  0
M  END
>  <name>  (19) 
Car Nac Nd0 Car Car Car

>  <indices>  (19) 
[0, 1, 2]

>  <dummy>  (19) 
2

>  <tasks>  (19) 
probe_placing close_aromatic_ring close_aromatic_ring

>  <current_task>  (19) 
close_aromatic_ring

>  <prot_clashes>  (19) 
2

>  <NBS phar>  (19) 
0.1

>  <NBS_non-phar>  (19) 
0.8467942237854004

>  <NBS>  (19) 
0.9467942237854003

>  <source_stage>  (19) 
scored

>  <source_iter>  (19) 
2

>  <source_parent_mol>  (19) 
0

>  <source_scenario>  (19) 
1 0

>  <source_rank_in_scored_call>  (19) 
6

>  <source_current_task>  (19) 
close_aromatic_ring

>  <scenario>  (19) 
1 0

>  <rotatable_bond_torsions>  (19) 
0,1,3,4

>  <reason_to_skip>  (19) 
incorrect arom ring closing

$$$$

     RDKit          3D

  6  5  0  0  0  0  0  0  0  0999 V2000
  -28.0390   -7.4530  -31.7250 C   0  0  0  0  0  0  0  0  0  0  0  0
  -27.5090   -6.5100  -32.5550 N   0  0  0  0  0  0  0  0  0  0  0  0
  -28.0120   -8.7980  -32.1210 N   0  0  0  0  0  0  0  0  0  0  0  0
  -27.6630   -5.2870  -31.8500 C   0  0  0  0  0  0  0  0  0  0  0  0
  -27.1370   -4.0430  -32.4270 C   0  0  0  0  0  0  0  0  0  0  0  0
  -27.9176   -2.8889  -32.8563 C   0  0  0  0  0  0  0  0  0  0  0  0
  1  2  2  3
  1  3  1  0
  2  4  1  0
  4  5  1  0
  5  6  2  0
M  END
>  <name>  (20) 
Car Nac Nd0 Car Car Car

>  <indices>  (20) 
[0, 1, 2]

>  <dummy>  (20) 
2

>  <tasks>  (20) 
probe_placing close_aromatic_ring close_aromatic_ring

>  <current_task>  (20) 
close_aromatic_ring

>  <prot_clashes>  (20) 
2

>  <NBS phar>  (20) 
0.1

>  <NBS_non-phar>  (20) 
0.8467942237854004

>  <NBS>  (20) 
0.9467942237854003

>  <source_stage>  (20) 
scored

>  <source_iter>  (20) 
2

>  <source_parent_mol>  (20) 
0

>  <source_scenario>  (20) 
1 0

>  <source_rank_in_scored_call>  (20) 
6

>  <source_current_task>  (20) 
close_aromatic_ring

>  <scenario>  (20) 
1 0

>  <rotatable_bond_torsions>  (20) 
0,1,3,4

>  <reason_to_skip>  (20) 
incorrect arom ring closing

$$$$

     RDKit          3D

  6  5  0  0  0  0  0  0  0  0999 V2000
  -28.0390   -7.4530  -31.7250 C   0  0  0  0  0  0  0  0  0  0  0  0
  -27.5090   -6.5100  -32.5550 N   0  0  0  0  0  0  0  0  0  0  0  0
  -28.0120   -8.7980  -32.1210 N   0  0  0  0  0  0  0  0  0  0  0  0
  -27.6630   -5.2870  -31.8500 C   0  0  0  0  0  0  0  0  0  0  0  0
  -27.1370   -4.0430  -32.4270 C   0  0  0  0  0  0  0  0  0  0  0  0
    0.0000    0.0000    0.0000 O   0  0  0  0  0  0  0  0  0  0  0  0
  1  2  2  3
  1  3  1  0
  2  4  1  0
  4  5  1  0
  5  6  1  0
M  END
>  <name>  (21) 
Car Nac Nd0 Car Car O_a

>  <indices>  (21) 
[0, 1, 2]

>  <dummy>  (21) 
2

>  <tasks>  (21) 
probe_placing close_aromatic_ring close_aromatic_ring

>  <current_task>  (21) 
close_aromatic_ring

>  <prot_clashes>  (21) 
2

>  <NBS phar>  (21) 
0.1

>  <NBS_non-phar>  (21) 
0.8467942237854004

>  <NBS>  (21) 
0.9467942237854003

>  <source_stage>  (21) 
scored

>  <source_iter>  (21) 
2

>  <source_parent_mol>  (21) 
0

>  <source_scenario>  (21) 
1 0

>  <source_rank_in_scored_call>  (21) 
6

>  <source_current_task>  (21) 
close_aromatic_ring

>  <scenario>  (21) 
1 0

>  <rotatable_bond_torsions>  (21) 
0,1,3,4

>  <reason_to_skip>  (21) 
some_atom_counter_exceeded

$$$$

     RDKit          3D

  6  5  0  0  0  0  0  0  0  0999 V2000
  -28.0390   -7.4530  -31.7250 C   0  0  0  0  0  0  0  0  0  0  0  0
  -27.5090   -6.5100  -32.5550 N   0  0  0  0  0  0  0  0  0  0  0  0
  -28.0120   -8.7980  -32.1210 N   0  0  0  0  0  0  0  0  0  0  0  0
  -27.6630   -5.2870  -31.8500 C   0  0  0  0  0  0  0  0  0  0  0  0
  -27.1370   -4.0430  -32.4270 C   0  0  0  0  0  0  0  0  0  0  0  0
  -27.1380   -2.8156  -31.9860 N   0  0  0  0  0  0  0  0  0  0  0  0
  1  2  2  3
  1  3  1  0
  2  4  1  0
  4  5  1  0
  5  6  1  0
M  END
>  <name>  (22) 
Car Nac Nd0 Car Car Nd0

>  <indices>  (22) 
[0, 1, 2]

>  <dummy>  (22) 
2

>  <tasks>  (22) 
probe_placing close_aromatic_ring close_aromatic_ring

>  <current_task>  (22) 
close_aromatic_ring

>  <prot_clashes>  (22) 
2

>  <NBS phar>  (22) 
0.1

>  <NBS_non-phar>  (22) 
0.8467942237854004

>  <NBS>  (22) 
0.9467942237854003

>  <source_stage>  (22) 
scored

>  <source_iter>  (22) 
2

>  <source_parent_mol>  (22) 
0

>  <source_scenario>  (22) 
1 0

>  <source_rank_in_scored_call>  (22) 
6

>  <source_current_task>  (22) 
close_aromatic_ring

>  <scenario>  (22) 
1 0

>  <rotatable_bond_torsions>  (22) 
0,1,3,4

>  <reason_to_skip>  (22) 
incorrect arom ring closing

$$$$

     RDKit          3D

  6  5  0  0  0  0  0  0  0  0999 V2000
  -28.0390   -7.4530  -31.7250 C   0  0  0  0  0  0  0  0  0  0  0  0
  -27.5090   -6.5100  -32.5550 N   0  0  0  0  0  0  0  0  0  0  0  0
  -28.0120   -8.7980  -32.1210 N   0  0  0  0  0  0  0  0  0  0  0  0
  -27.6630   -5.2870  -31.8500 C   0  0  0  0  0  0  0  0  0  0  0  0
  -27.1370   -4.0430  -32.4270 C   0  0  0  0  0  0  0  0  0  0  0  0
  -27.6935   -2.8349  -32.1304 C   0  0  0  0  0  0  0  0  0  0  0  0
  1  2  2  3
  1  3  1  0
  2  4  1  0
  4  5  1  0
  5  6  1  0
M  END
>  <name>  (23) 
Car Nac Nd0 Car Car Car

>  <indices>  (23) 
[0, 1, 2]

>  <dummy>  (23) 
2

>  <tasks>  (23) 
probe_placing close_aromatic_ring close_aromatic_ring

>  <current_task>  (23) 
close_aromatic_ring

>  <prot_clashes>  (23) 
2

>  <NBS phar>  (23) 
0.1

>  <NBS_non-phar>  (23) 
0.8467942237854004

>  <NBS>  (23) 
0.9467942237854003

>  <source_stage>  (23) 
scored

>  <source_iter>  (23) 
2

>  <source_parent_mol>  (23) 
0

>  <source_scenario>  (23) 
1 0

>  <source_rank_in_scored_call>  (23) 
6

>  <source_current_task>  (23) 
close_aromatic_ring

>  <scenario>  (23) 
1 0

>  <rotatable_bond_torsions>  (23) 
0,1,3,4

>  <reason_to_skip>  (23) 
incorrect arom ring closing

$$$$

     RDKit          3D

  6  5  0  0  0  0  0  0  0  0999 V2000
  -28.0390   -7.4530  -31.7250 C   0  0  0  0  0  0  0  0  0  0  0  0
  -27.5090   -6.5100  -32.5550 N   0  0  0  0  0  0  0  0  0  0  0  0
  -28.0120   -8.7980  -32.1210 N   0  0  0  0  0  0  0  0  0  0  0  0
  -27.6630   -5.2870  -31.8500 C   0  0  0  0  0  0  0  0  0  0  0  0
  -27.1370   -4.0430  -32.4270 C   0  0  0  0  0  0  0  0  0  0  0  0
    0.0000    0.0000    0.0000 O   0  0  0  0  0  0  0  0  0  0  0  0
  1  2  2  3
  1  3  1  0
  2  4  1  0
  4  5  1  0
  5  6  1  0
M  END
>  <name>  (24) 
Car Nac Nd0 Car Car O_a

>  <indices>  (24) 
[0, 1, 2]

>  <dummy>  (24) 
2

>  <tasks>  (24) 
probe_placing close_aromatic_ring close_aromatic_ring

>  <current_task>  (24) 
close_aromatic_ring

>  <prot_clashes>  (24) 
2

>  <NBS phar>  (24) 
0.1

>  <NBS_non-phar>  (24) 
0.8467942237854004

>  <NBS>  (24) 
0.9467942237854003

>  <source_stage>  (24) 
scored

>  <source_iter>  (24) 
2

>  <source_parent_mol>  (24) 
0

>  <source_scenario>  (24) 
1 0

>  <source_rank_in_scored_call>  (24) 
6

>  <source_current_task>  (24) 
close_aromatic_ring

>  <scenario>  (24) 
1 0

>  <rotatable_bond_torsions>  (24) 
0,1,3,4

>  <reason_to_skip>  (24) 
some_atom_counter_exceeded

$$$$

     RDKit          3D

  6  5  0  0  0  0  0  0  0  0999 V2000
  -28.0390   -7.4530  -31.7250 C   0  0  0  0  0  0  0  0  0  0  0  0
  -27.5090   -6.5100  -32.5550 N   0  0  0  0  0  0  0  0  0  0  0  0
  -28.0120   -8.7980  -32.1210 N   0  0  0  0  0  0  0  0  0  0  0  0
  -27.6630   -5.2870  -31.8500 C   0  0  0  0  0  0  0  0  0  0  0  0
  -27.1370   -4.0430  -32.4270 C   0  0  0  0  0  0  0  0  0  0  0  0
  -27.3005   -2.9081  -31.7598 N   0  0  0  0  0  0  0  0  0  0  0  0
  1  2  2  3
  1  3  1  0
  2  4  1  0
  4  5  1  0
  5  6  1  0
M  END
>  <name>  (25) 
Car Nac Nd0 Car Car Nd0

>  <indices>  (25) 
[0, 1, 2]

>  <dummy>  (25) 
2

>  <tasks>  (25) 
probe_placing close_aromatic_ring close_aromatic_ring

>  <current_task>  (25) 
close_aromatic_ring

>  <prot_clashes>  (25) 
2

>  <NBS phar>  (25) 
0.1

>  <NBS_non-phar>  (25) 
0.8467942237854004

>  <NBS>  (25) 
0.9467942237854003

>  <source_stage>  (25) 
scored

>  <source_iter>  (25) 
2

>  <source_parent_mol>  (25) 
0

>  <source_scenario>  (25) 
1 0

>  <source_rank_in_scored_call>  (25) 
6

>  <source_current_task>  (25) 
close_aromatic_ring

>  <scenario>  (25) 
1 0

>  <rotatable_bond_torsions>  (25) 
0,1,3,4

>  <reason_to_skip>  (25) 
incorrect arom ring closing

$$$$

     RDKit          3D

  6  5  0  0  0  0  0  0  0  0999 V2000
  -28.0390   -7.4530  -31.7250 C   0  0  0  0  0  0  0  0  0  0  0  0
  -27.5090   -6.5100  -32.5550 N   0  0  0  0  0  0  0  0  0  0  0  0
  -28.0120   -8.7980  -32.1210 N   0  0  0  0  0  0  0  0  0  0  0  0
  -27.6630   -5.2870  -31.8500 C   0  0  0  0  0  0  0  0  0  0  0  0
  -27.1370   -4.0430  -32.4270 C   0  0  0  0  0  0  0  0  0  0  0  0
    0.0000    0.0000    0.0000 O   0  0  0  0  0  0  0  0  0  0  0  0
  1  2  2  3
  1  3  1  0
  2  4  1  0
  4  5  1  0
  5  6  1  0
M  END
>  <name>  (26) 
Car Nac Nd0 Car Car O_a

>  <indices>  (26) 
[0, 1, 2]

>  <dummy>  (26) 
2

>  <tasks>  (26) 
probe_placing close_aromatic_ring close_aromatic_ring

>  <current_task>  (26) 
close_aromatic_ring

>  <prot_clashes>  (26) 
2

>  <NBS phar>  (26) 
0.1

>  <NBS_non-phar>  (26) 
0.8467942237854004

>  <NBS>  (26) 
0.9467942237854003

>  <source_stage>  (26) 
scored

>  <source_iter>  (26) 
2

>  <source_parent_mol>  (26) 
0

>  <source_scenario>  (26) 
1 0

>  <source_rank_in_scored_call>  (26) 
6

>  <source_current_task>  (26) 
close_aromatic_ring

>  <scenario>  (26) 
1 0

>  <rotatable_bond_torsions>  (26) 
0,1,3,4

>  <reason_to_skip>  (26) 
some_atom_counter_exceeded

$$$$

     RDKit          3D

  6  5  0  0  0  0  0  0  0  0999 V2000
  -28.0390   -7.4530  -31.7250 C   0  0  0  0  0  0  0  0  0  0  0  0
  -27.5090   -6.5100  -32.5550 N   0  0  0  0  0  0  0  0  0  0  0  0
  -28.0120   -8.7980  -32.1210 N   0  0  0  0  0  0  0  0  0  0  0  0
  -27.6630   -5.2870  -31.8500 C   0  0  0  0  0  0  0  0  0  0  0  0
  -27.1370   -4.0430  -32.4270 C   0  0  0  0  0  0  0  0  0  0  0  0
    0.0000    0.0000    0.0000 O   0  0  0  0  0  0  0  0  0  0  0  0
  1  2  2  3
  1  3  1  0
  2  4  1  0
  4  5  1  0
  5  6  1  0
M  END
>  <name>  (27) 
Car Nac Nd0 Car Car O_a

>  <indices>  (27) 
[0, 1, 2]

>  <dummy>  (27) 
2

>  <tasks>  (27) 
probe_placing close_aromatic_ring close_aromatic_ring

>  <current_task>  (27) 
close_aromatic_ring

>  <prot_clashes>  (27) 
2

>  <NBS phar>  (27) 
0.1

>  <NBS_non-phar>  (27) 
0.8467942237854004

>  <NBS>  (27) 
0.9467942237854003

>  <source_stage>  (27) 
scored

>  <source_iter>  (27) 
2

>  <source_parent_mol>  (27) 
0

>  <source_scenario>  (27) 
1 0

>  <source_rank_in_scored_call>  (27) 
6

>  <source_current_task>  (27) 
close_aromatic_ring

>  <scenario>  (27) 
1 0

>  <rotatable_bond_torsions>  (27) 
0,1,3,4

>  <reason_to_skip>  (27) 
some_atom_counter_exceeded

$$$$

     RDKit          3D

  6  5  0  0  0  0  0  0  0  0999 V2000
  -28.0390   -7.4530  -31.7250 C   0  0  0  0  0  0  0  0  0  0  0  0
  -27.5090   -6.5100  -32.5550 N   0  0  0  0  0  0  0  0  0  0  0  0
  -28.0120   -8.7980  -32.1210 N   0  0  0  0  0  0  0  0  0  0  0  0
  -27.6630   -5.2870  -31.8500 C   0  0  0  0  0  0  0  0  0  0  0  0
  -27.1370   -4.0430  -32.4270 C   0  0  0  0  0  0  0  0  0  0  0  0
  -27.0482   -2.9117  -31.7624 N   0  0  0  0  0  0  0  0  0  0  0  0
  1  2  2  3
  1  3  1  0
  2  4  1  0
  4  5  1  0
  5  6  1  0
M  END
>  <name>  (28) 
Car Nac Nd0 Car Car Nac

>  <indices>  (28) 
[0, 1, 2]

>  <dummy>  (28) 
2

>  <tasks>  (28) 
probe_placing close_aromatic_ring close_aromatic_ring

>  <current_task>  (28) 
close_aromatic_ring

>  <prot_clashes>  (28) 
2

>  <NBS phar>  (28) 
0.1

>  <NBS_non-phar>  (28) 
0.8467942237854004

>  <NBS>  (28) 
0.9467942237854003

>  <source_stage>  (28) 
scored

>  <source_iter>  (28) 
2

>  <source_parent_mol>  (28) 
0

>  <source_scenario>  (28) 
1 0

>  <source_rank_in_scored_call>  (28) 
6

>  <source_current_task>  (28) 
close_aromatic_ring

>  <scenario>  (28) 
1 0

>  <rotatable_bond_torsions>  (28) 
0,1,3,4

>  <reason_to_skip>  (28) 
incorrect arom ring closing

$$$$

     RDKit          3D

  6  5  0  0  0  0  0  0  0  0999 V2000
  -28.0390   -7.4530  -31.7250 C   0  0  0  0  0  0  0  0  0  0  0  0
  -27.5090   -6.5100  -32.5550 N   0  0  0  0  0  0  0  0  0  0  0  0
  -28.0120   -8.7980  -32.1210 N   0  0  0  0  0  0  0  0  0  0  0  0
  -27.6630   -5.2870  -31.8500 C   0  0  0  0  0  0  0  0  0  0  0  0
  -27.1370   -4.0430  -32.4270 C   0  0  0  0  0  0  0  0  0  0  0  0
  -27.7002   -3.2118  -33.3549 N   0  0  0  0  0  0  0  0  0  0  0  0
  1  2  2  3
  1  3  1  0
  2  4  1  0
  4  5  1  0
  5  6  2  0
M  END
>  <name>  (29) 
Car Nac Nd0 Car Car Nac

>  <indices>  (29) 
[0, 1, 2]

>  <dummy>  (29) 
2

>  <tasks>  (29) 
probe_placing close_aromatic_ring close_aromatic_ring

>  <current_task>  (29) 
close_aromatic_ring

>  <prot_clashes>  (29) 
2

>  <NBS phar>  (29) 
0.1

>  <NBS_non-phar>  (29) 
0.8467942237854004

>  <NBS>  (29) 
0.9467942237854003

>  <source_stage>  (29) 
scored

>  <source_iter>  (29) 
2

>  <source_parent_mol>  (29) 
0

>  <source_scenario>  (29) 
1 0

>  <source_rank_in_scored_call>  (29) 
6

>  <source_current_task>  (29) 
close_aromatic_ring

>  <scenario>  (29) 
1 0

>  <rotatable_bond_torsions>  (29) 
0,1,3,4

>  <reason_to_skip>  (29) 
incorrect arom ring closing

$$$$

     RDKit          3D

  6  5  0  0  0  0  0  0  0  0999 V2000
  -28.0390   -7.4530  -31.7250 C   0  0  0  0  0  0  0  0  0  0  0  0
  -27.5090   -6.5100  -32.5550 N   0  0  0  0  0  0  0  0  0  0  0  0
  -28.0120   -8.7980  -32.1210 N   0  0  0  0  0  0  0  0  0  0  0  0
  -27.6630   -5.2870  -31.8500 C   0  0  0  0  0  0  0  0  0  0  0  0
  -27.1370   -4.0430  -32.4270 C   0  0  0  0  0  0  0  0  0  0  0  0
  -26.0020   -3.4070  -32.0071 N   0  0  0  0  0  0  0  0  0  0  0  0
  1  2  2  3
  1  3  1  0
  2  4  1  0
  4  5  1  0
  5  6  1  0
M  END
>  <name>  (30) 
Car Nac Nd0 Car Car Nac

>  <indices>  (30) 
[0, 1, 2]

>  <dummy>  (30) 
2

>  <tasks>  (30) 
probe_placing close_aromatic_ring close_aromatic_ring

>  <current_task>  (30) 
close_aromatic_ring

>  <prot_clashes>  (30) 
2

>  <NBS phar>  (30) 
0.1

>  <NBS_non-phar>  (30) 
0.8467942237854004

>  <NBS>  (30) 
0.9467942237854003

>  <source_stage>  (30) 
scored

>  <source_iter>  (30) 
2

>  <source_parent_mol>  (30) 
0

>  <source_scenario>  (30) 
1 0

>  <source_rank_in_scored_call>  (30) 
6

>  <source_current_task>  (30) 
close_aromatic_ring

>  <scenario>  (30) 
1 0

>  <rotatable_bond_torsions>  (30) 
0,1,3,4

>  <reason_to_skip>  (30) 
incorrect arom ring closing

$$$$

     RDKit          3D

  6  5  0  0  0  0  0  0  0  0999 V2000
  -28.0390   -7.4530  -31.7250 C   0  0  0  0  0  0  0  0  0  0  0  0
  -27.5090   -6.5100  -32.5550 N   0  0  0  0  0  0  0  0  0  0  0  0
  -28.0120   -8.7980  -32.1210 N   0  0  0  0  0  0  0  0  0  0  0  0
  -27.6630   -5.2870  -31.8500 C   0  0  0  0  0  0  0  0  0  0  0  0
  -27.1370   -4.0430  -32.4270 C   0  0  0  0  0  0  0  0  0  0  0  0
    0.0000    0.0000    0.0000 S   0  0  0  0  0  0  0  0  0  0  0  0
  1  2  2  3
  1  3  1  0
  2  4  1  0
  4  5  1  0
  5  6  1  0
M  END
>  <name>  (31) 
Car Nac Nd0 Car Car Sul

>  <indices>  (31) 
[0, 1, 2]

>  <dummy>  (31) 
2

>  <tasks>  (31) 
probe_placing close_aromatic_ring close_aromatic_ring

>  <current_task>  (31) 
close_aromatic_ring

>  <prot_clashes>  (31) 
2

>  <NBS phar>  (31) 
0.1

>  <NBS_non-phar>  (31) 
0.8467942237854004

>  <NBS>  (31) 
0.9467942237854003

>  <source_stage>  (31) 
scored

>  <source_iter>  (31) 
2

>  <source_parent_mol>  (31) 
0

>  <source_scenario>  (31) 
1 0

>  <source_rank_in_scored_call>  (31) 
6

>  <source_current_task>  (31) 
close_aromatic_ring

>  <scenario>  (31) 
1 0

>  <rotatable_bond_torsions>  (31) 
0,1,3,4

>  <reason_to_skip>  (31) 
some_atom_counter_exceeded

$$$$

     RDKit          3D

  6  5  0  0  0  0  0  0  0  0999 V2000
  -28.0390   -7.4530  -31.7250 C   0  0  0  0  0  0  0  0  0  0  0  0
  -27.5090   -6.5100  -32.5550 N   0  0  0  0  0  0  0  0  0  0  0  0
  -28.0120   -8.7980  -32.1210 N   0  0  0  0  0  0  0  0  0  0  0  0
  -27.6630   -5.2870  -31.8500 C   0  0  0  0  0  0  0  0  0  0  0  0
  -27.1370   -4.0430  -32.4270 C   0  0  0  0  0  0  0  0  0  0  0  0
  -26.0022   -3.2947  -31.9662 C   0  0  0  0  0  0  0  0  0  0  0  0
  1  2  2  3
  1  3  1  0
  2  4  1  0
  4  5  1  0
  5  6  2  0
M  END
>  <name>  (32) 
Car Nac Nd0 Car Car Car

>  <indices>  (32) 
[0, 1, 2]

>  <dummy>  (32) 
2

>  <tasks>  (32) 
probe_placing close_aromatic_ring close_aromatic_ring

>  <current_task>  (32) 
close_aromatic_ring

>  <prot_clashes>  (32) 
2

>  <NBS phar>  (32) 
0.1

>  <NBS_non-phar>  (32) 
0.8467942237854004

>  <NBS>  (32) 
0.9467942237854003

>  <source_stage>  (32) 
scored

>  <source_iter>  (32) 
2

>  <source_parent_mol>  (32) 
0

>  <source_scenario>  (32) 
1 0

>  <source_rank_in_scored_call>  (32) 
6

>  <source_current_task>  (32) 
close_aromatic_ring

>  <scenario>  (32) 
1 0

>  <rotatable_bond_torsions>  (32) 
0,1,3,4

>  <reason_to_skip>  (32) 
incorrect arom ring closing

$$$$

     RDKit          3D

  6  5  0  0  0  0  0  0  0  0999 V2000
  -28.0390   -7.4530  -31.7250 C   0  0  0  0  0  0  0  0  0  0  0  0
  -27.5090   -6.5100  -32.5550 N   0  0  0  0  0  0  0  0  0  0  0  0
  -28.0120   -8.7980  -32.1210 N   0  0  0  0  0  0  0  0  0  0  0  0
  -27.6630   -5.2870  -31.8500 C   0  0  0  0  0  0  0  0  0  0  0  0
  -27.1370   -4.0430  -32.4270 C   0  0  0  0  0  0  0  0  0  0  0  0
    0.0000    0.0000    0.0000 S   0  0  0  0  0  0  0  0  0  0  0  0
  1  2  2  3
  1  3  1  0
  2  4  1  0
  4  5  1  0
  5  6  1  0
M  END
>  <name>  (33) 
Car Nac Nd0 Car Car Sul

>  <indices>  (33) 
[0, 1, 2]

>  <dummy>  (33) 
2

>  <tasks>  (33) 
probe_placing close_aromatic_ring close_aromatic_ring

>  <current_task>  (33) 
close_aromatic_ring

>  <prot_clashes>  (33) 
2

>  <NBS phar>  (33) 
0.1

>  <NBS_non-phar>  (33) 
0.8467942237854004

>  <NBS>  (33) 
0.9467942237854003

>  <source_stage>  (33) 
scored

>  <source_iter>  (33) 
2

>  <source_parent_mol>  (33) 
0

>  <source_scenario>  (33) 
1 0

>  <source_rank_in_scored_call>  (33) 
6

>  <source_current_task>  (33) 
close_aromatic_ring

>  <scenario>  (33) 
1 0

>  <rotatable_bond_torsions>  (33) 
0,1,3,4

>  <reason_to_skip>  (33) 
some_atom_counter_exceeded

$$$$

     RDKit          3D

  6  5  0  0  0  0  0  0  0  0999 V2000
  -28.0390   -7.4530  -31.7250 C   0  0  0  0  0  0  0  0  0  0  0  0
  -27.5090   -6.5100  -32.5550 N   0  0  0  0  0  0  0  0  0  0  0  0
  -28.0120   -8.7980  -32.1210 N   0  0  0  0  0  0  0  0  0  0  0  0
  -27.6630   -5.2870  -31.8500 C   0  0  0  0  0  0  0  0  0  0  0  0
  -27.1370   -4.0430  -32.4270 C   0  0  0  0  0  0  0  0  0  0  0  0
    0.0000    0.0000    0.0000 O   0  0  0  0  0  0  0  0  0  0  0  0
  1  2  2  3
  1  3  1  0
  2  4  1  0
  4  5  1  0
  5  6  1  0
M  END
>  <name>  (34) 
Car Nac Nd0 Car Car O_a

>  <indices>  (34) 
[0, 1, 2]

>  <dummy>  (34) 
2

>  <tasks>  (34) 
probe_placing close_aromatic_ring close_aromatic_ring

>  <current_task>  (34) 
close_aromatic_ring

>  <prot_clashes>  (34) 
2

>  <NBS phar>  (34) 
0.1

>  <NBS_non-phar>  (34) 
0.8467942237854004

>  <NBS>  (34) 
0.9467942237854003

>  <source_stage>  (34) 
scored

>  <source_iter>  (34) 
2

>  <source_parent_mol>  (34) 
0

>  <source_scenario>  (34) 
1 0

>  <source_rank_in_scored_call>  (34) 
6

>  <source_current_task>  (34) 
close_aromatic_ring

>  <scenario>  (34) 
1 0

>  <rotatable_bond_torsions>  (34) 
0,1,3,4

>  <reason_to_skip>  (34) 
some_atom_counter_exceeded

$$$$

     RDKit          3D

  6  5  0  0  0  0  0  0  0  0999 V2000
  -28.0390   -7.4530  -31.7250 C   0  0  0  0  0  0  0  0  0  0  0  0
  -27.5090   -6.5100  -32.5550 N   0  0  0  0  0  0  0  0  0  0  0  0
  -28.0120   -8.7980  -32.1210 N   0  0  0  0  0  0  0  0  0  0  0  0
  -27.6630   -5.2870  -31.8500 C   0  0  0  0  0  0  0  0  0  0  0  0
  -27.1370   -4.0430  -32.4270 C   0  0  0  0  0  0  0  0  0  0  0  0
  -26.3073   -3.9179  -33.4560 N   0  0  0  0  0  0  0  0  0  0  0  0
  1  2  2  3
  1  3  1  0
  2  4  1  0
  4  5  1  0
  5  6  1  0
M  END
>  <name>  (35) 
Car Nac Nd0 Car Car Nac

>  <indices>  (35) 
[0, 1, 2]

>  <dummy>  (35) 
2

>  <tasks>  (35) 
probe_placing close_aromatic_ring close_aromatic_ring

>  <current_task>  (35) 
close_aromatic_ring

>  <prot_clashes>  (35) 
2

>  <NBS phar>  (35) 
0.1

>  <NBS_non-phar>  (35) 
0.8467942237854004

>  <NBS>  (35) 
0.9467942237854003

>  <source_stage>  (35) 
scored

>  <source_iter>  (35) 
2

>  <source_parent_mol>  (35) 
0

>  <source_scenario>  (35) 
1 0

>  <source_rank_in_scored_call>  (35) 
6

>  <source_current_task>  (35) 
close_aromatic_ring

>  <scenario>  (35) 
1 0

>  <rotatable_bond_torsions>  (35) 
0,1,3,4

>  <reason_to_skip>  (35) 
incorrect arom ring closing

$$$$

     RDKit          3D

  6  5  0  0  0  0  0  0  0  0999 V2000
  -28.0390   -7.4530  -31.7250 C   0  0  0  0  0  0  0  0  0  0  0  0
  -27.5090   -6.5100  -32.5550 N   0  0  0  0  0  0  0  0  0  0  0  0
  -28.0120   -8.7980  -32.1210 N   0  0  0  0  0  0  0  0  0  0  0  0
  -27.6630   -5.2870  -31.8500 C   0  0  0  0  0  0  0  0  0  0  0  0
  -27.1370   -4.0430  -32.4270 C   0  0  0  0  0  0  0  0  0  0  0  0
  -27.9968   -2.9619  -32.8574 C   0  0  0  0  0  0  0  0  0  0  0  0
  1  2  2  3
  1  3  1  0
  2  4  1  0
  4  5  1  0
  5  6  2  0
M  END
>  <name>  (36) 
Car Nac Nd0 Car Car Car

>  <indices>  (36) 
[0, 1, 2]

>  <dummy>  (36) 
2

>  <tasks>  (36) 
probe_placing close_aromatic_ring close_aromatic_ring

>  <current_task>  (36) 
close_aromatic_ring

>  <prot_clashes>  (36) 
2

>  <NBS phar>  (36) 
0.1

>  <NBS_non-phar>  (36) 
0.8467942237854004

>  <NBS>  (36) 
0.9467942237854003

>  <source_stage>  (36) 
scored

>  <source_iter>  (36) 
2

>  <source_parent_mol>  (36) 
0

>  <source_scenario>  (36) 
1 0

>  <source_rank_in_scored_call>  (36) 
6

>  <source_current_task>  (36) 
close_aromatic_ring

>  <scenario>  (36) 
1 0

>  <rotatable_bond_torsions>  (36) 
0,1,3,4

>  <reason_to_skip>  (36) 
incorrect arom ring closing

$$$$

     RDKit          3D

  6  5  0  0  0  0  0  0  0  0999 V2000
  -28.0390   -7.4530  -31.7250 C   0  0  0  0  0  0  0  0  0  0  0  0
  -27.5090   -6.5100  -32.5550 N   0  0  0  0  0  0  0  0  0  0  0  0
  -28.0120   -8.7980  -32.1210 N   0  0  0  0  0  0  0  0  0  0  0  0
  -27.6630   -5.2870  -31.8500 C   0  0  0  0  0  0  0  0  0  0  0  0
  -27.1370   -4.0430  -32.4270 C   0  0  0  0  0  0  0  0  0  0  0  0
    0.0000    0.0000    0.0000 S   0  0  0  0  0  0  0  0  0  0  0  0
  1  2  2  3
  1  3  1  0
  2  4  1  0
  4  5  1  0
  5  6  1  0
M  END
>  <name>  (37) 
Car Nac Nd0 Car Car Sul

>  <indices>  (37) 
[0, 1, 2]

>  <dummy>  (37) 
2

>  <tasks>  (37) 
probe_placing close_aromatic_ring close_aromatic_ring

>  <current_task>  (37) 
close_aromatic_ring

>  <prot_clashes>  (37) 
2

>  <NBS phar>  (37) 
0.1

>  <NBS_non-phar>  (37) 
0.8467942237854004

>  <NBS>  (37) 
0.9467942237854003

>  <source_stage>  (37) 
scored

>  <source_iter>  (37) 
2

>  <source_parent_mol>  (37) 
0

>  <source_scenario>  (37) 
1 0

>  <source_rank_in_scored_call>  (37) 
6

>  <source_current_task>  (37) 
close_aromatic_ring

>  <scenario>  (37) 
1 0

>  <rotatable_bond_torsions>  (37) 
0,1,3,4

>  <reason_to_skip>  (37) 
some_atom_counter_exceeded

$$$$

     RDKit          3D

  6  5  0  0  0  0  0  0  0  0999 V2000
  -28.0390   -7.4530  -31.7250 C   0  0  0  0  0  0  0  0  0  0  0  0
  -27.5090   -6.5100  -32.5550 N   0  0  0  0  0  0  0  0  0  0  0  0
  -28.0120   -8.7980  -32.1210 N   0  0  0  0  0  0  0  0  0  0  0  0
  -27.6630   -5.2870  -31.8500 C   0  0  0  0  0  0  0  0  0  0  0  0
  -27.1370   -4.0430  -32.4270 C   0  0  0  0  0  0  0  0  0  0  0  0
    0.0000    0.0000    0.0000 O   0  0  0  0  0  0  0  0  0  0  0  0
  1  2  2  3
  1  3  1  0
  2  4  1  0
  4  5  1  0
  5  6  1  0
M  END
>  <name>  (38) 
Car Nac Nd0 Car Car O_a

>  <indices>  (38) 
[0, 1, 2]

>  <dummy>  (38) 
2

>  <tasks>  (38) 
probe_placing close_aromatic_ring close_aromatic_ring

>  <current_task>  (38) 
close_aromatic_ring

>  <prot_clashes>  (38) 
2

>  <NBS phar>  (38) 
0.1

>  <NBS_non-phar>  (38) 
0.8467942237854004

>  <NBS>  (38) 
0.9467942237854003

>  <source_stage>  (38) 
scored

>  <source_iter>  (38) 
2

>  <source_parent_mol>  (38) 
0

>  <source_scenario>  (38) 
1 0

>  <source_rank_in_scored_call>  (38) 
6

>  <source_current_task>  (38) 
close_aromatic_ring

>  <scenario>  (38) 
1 0

>  <rotatable_bond_torsions>  (38) 
0,1,3,4

>  <reason_to_skip>  (38) 
some_atom_counter_exceeded

$$$$

     RDKit          3D

  6  5  0  0  0  0  0  0  0  0999 V2000
  -28.0390   -7.4530  -31.7250 C   0  0  0  0  0  0  0  0  0  0  0  0
  -27.5090   -6.5100  -32.5550 N   0  0  0  0  0  0  0  0  0  0  0  0
  -28.0120   -8.7980  -32.1210 N   0  0  0  0  0  0  0  0  0  0  0  0
  -27.6630   -5.2870  -31.8500 C   0  0  0  0  0  0  0  0  0  0  0  0
  -27.1370   -4.0430  -32.4270 C   0  0  0  0  0  0  0  0  0  0  0  0
    0.0000    0.0000    0.0000 S   0  0  0  0  0  0  0  0  0  0  0  0
  1  2  2  3
  1  3  1  0
  2  4  1  0
  4  5  1  0
  5  6  1  0
M  END
>  <name>  (39) 
Car Nac Nd0 Car Car Sul

>  <indices>  (39) 
[0, 1, 2]

>  <dummy>  (39) 
2

>  <tasks>  (39) 
probe_placing close_aromatic_ring close_aromatic_ring

>  <current_task>  (39) 
close_aromatic_ring

>  <prot_clashes>  (39) 
2

>  <NBS phar>  (39) 
0.1

>  <NBS_non-phar>  (39) 
0.8467942237854004

>  <NBS>  (39) 
0.9467942237854003

>  <source_stage>  (39) 
scored

>  <source_iter>  (39) 
2

>  <source_parent_mol>  (39) 
0

>  <source_scenario>  (39) 
1 0

>  <source_rank_in_scored_call>  (39) 
6

>  <source_current_task>  (39) 
close_aromatic_ring

>  <scenario>  (39) 
1 0

>  <rotatable_bond_torsions>  (39) 
0,1,3,4

>  <reason_to_skip>  (39) 
some_atom_counter_exceeded

$$$$

     RDKit          3D

  6  5  0  0  0  0  0  0  0  0999 V2000
  -28.0390   -7.4530  -31.7250 C   0  0  0  0  0  0  0  0  0  0  0  0
  -27.5090   -6.5100  -32.5550 N   0  0  0  0  0  0  0  0  0  0  0  0
  -28.0120   -8.7980  -32.1210 N   0  0  0  0  0  0  0  0  0  0  0  0
  -27.6630   -5.2870  -31.8500 C   0  0  0  0  0  0  0  0  0  0  0  0
  -27.1370   -4.0430  -32.4270 C   0  0  0  0  0  0  0  0  0  0  0  0
    0.0000    0.0000    0.0000 S   0  0  0  0  0  0  0  0  0  0  0  0
  1  2  2  3
  1  3  1  0
  2  4  1  0
  4  5  1  0
  5  6  1  0
M  END
>  <name>  (40) 
Car Nac Nd0 Car Car Sul

>  <indices>  (40) 
[0, 1, 2]

>  <dummy>  (40) 
2

>  <tasks>  (40) 
probe_placing close_aromatic_ring close_aromatic_ring

>  <current_task>  (40) 
close_aromatic_ring

>  <prot_clashes>  (40) 
2

>  <NBS phar>  (40) 
0.1

>  <NBS_non-phar>  (40) 
0.8467942237854004

>  <NBS>  (40) 
0.9467942237854003

>  <source_stage>  (40) 
scored

>  <source_iter>  (40) 
2

>  <source_parent_mol>  (40) 
0

>  <source_scenario>  (40) 
1 0

>  <source_rank_in_scored_call>  (40) 
6

>  <source_current_task>  (40) 
close_aromatic_ring

>  <scenario>  (40) 
1 0

>  <rotatable_bond_torsions>  (40) 
0,1,3,4

>  <reason_to_skip>  (40) 
some_atom_counter_exceeded

$$$$

     RDKit          3D

  6  5  0  0  0  0  0  0  0  0999 V2000
  -28.0390   -7.4530  -31.7250 C   0  0  0  0  0  0  0  0  0  0  0  0
  -27.5090   -6.5100  -32.5550 N   0  0  0  0  0  0  0  0  0  0  0  0
  -28.0120   -8.7980  -32.1210 N   0  0  0  0  0  0  0  0  0  0  0  0
  -27.6630   -5.2870  -31.8500 C   0  0  0  0  0  0  0  0  0  0  0  0
  -27.1370   -4.0430  -32.4270 C   0  0  0  0  0  0  0  0  0  0  0  0
  -27.7880   -3.3759  -33.5155 C   0  0  0  0  0  0  0  0  0  0  0  0
  1  2  2  3
  1  3  1  0
  2  4  1  0
  4  5  1  0
  5  6  1  0
M  END
>  <name>  (41) 
Car Nac Nd0 Car Car Car

>  <indices>  (41) 
[0, 1, 2]

>  <dummy>  (41) 
2

>  <tasks>  (41) 
probe_placing close_aromatic_ring close_aromatic_ring

>  <current_task>  (41) 
close_aromatic_ring

>  <prot_clashes>  (41) 
2

>  <NBS phar>  (41) 
0.1

>  <NBS_non-phar>  (41) 
0.8467942237854004

>  <NBS>  (41) 
0.9467942237854003

>  <source_stage>  (41) 
scored

>  <source_iter>  (41) 
2

>  <source_parent_mol>  (41) 
0

>  <source_scenario>  (41) 
1 0

>  <source_rank_in_scored_call>  (41) 
6

>  <source_current_task>  (41) 
close_aromatic_ring

>  <scenario>  (41) 
1 0

>  <rotatable_bond_torsions>  (41) 
0,1,3,4

>  <reason_to_skip>  (41) 
incorrect arom ring closing

$$$$

     RDKit          3D

  6  5  0  0  0  0  0  0  0  0999 V2000
  -28.0390   -7.4530  -31.7250 C   0  0  0  0  0  0  0  0  0  0  0  0
  -27.5090   -6.5100  -32.5550 N   0  0  0  0  0  0  0  0  0  0  0  0
  -28.0120   -8.7980  -32.1210 N   0  0  0  0  0  0  0  0  0  0  0  0
  -27.6630   -5.2870  -31.8500 C   0  0  0  0  0  0  0  0  0  0  0  0
  -27.1370   -4.0430  -32.4270 C   0  0  0  0  0  0  0  0  0  0  0  0
    0.0000    0.0000    0.0000 O   0  0  0  0  0  0  0  0  0  0  0  0
  1  2  2  3
  1  3  1  0
  2  4  1  0
  4  5  1  0
  5  6  1  0
M  END
>  <name>  (42) 
Car Nac Nd0 Car Car O_a

>  <indices>  (42) 
[0, 1, 2]

>  <dummy>  (42) 
2

>  <tasks>  (42) 
probe_placing close_aromatic_ring close_aromatic_ring

>  <current_task>  (42) 
close_aromatic_ring

>  <prot_clashes>  (42) 
2

>  <NBS phar>  (42) 
0.1

>  <NBS_non-phar>  (42) 
0.8467942237854004

>  <NBS>  (42) 
0.9467942237854003

>  <source_stage>  (42) 
scored

>  <source_iter>  (42) 
2

>  <source_parent_mol>  (42) 
0

>  <source_scenario>  (42) 
1 0

>  <source_rank_in_scored_call>  (42) 
6

>  <source_current_task>  (42) 
close_aromatic_ring

>  <scenario>  (42) 
1 0

>  <rotatable_bond_torsions>  (42) 
0,1,3,4

>  <reason_to_skip>  (42) 
some_atom_counter_exceeded

$$$$

     RDKit          3D

  6  5  0  0  0  0  0  0  0  0999 V2000
  -28.0390   -7.4530  -31.7250 C   0  0  0  0  0  0  0  0  0  0  0  0
  -27.5090   -6.5100  -32.5550 N   0  0  0  0  0  0  0  0  0  0  0  0
  -28.0120   -8.7980  -32.1210 N   0  0  0  0  0  0  0  0  0  0  0  0
  -27.6630   -5.2870  -31.8500 C   0  0  0  0  0  0  0  0  0  0  0  0
  -27.1370   -4.0430  -32.4270 C   0  0  0  0  0  0  0  0  0  0  0  0
    0.0000    0.0000    0.0000 S   0  0  0  0  0  0  0  0  0  0  0  0
  1  2  2  3
  1  3  1  0
  2  4  1  0
  4  5  1  0
  5  6  1  0
M  END
>  <name>  (43) 
Car Nac Nd0 Car Car Sul

>  <indices>  (43) 
[0, 1, 2]

>  <dummy>  (43) 
2

>  <tasks>  (43) 
probe_placing close_aromatic_ring close_aromatic_ring

>  <current_task>  (43) 
close_aromatic_ring

>  <prot_clashes>  (43) 
2

>  <NBS phar>  (43) 
0.1

>  <NBS_non-phar>  (43) 
0.8467942237854004

>  <NBS>  (43) 
0.9467942237854003

>  <source_stage>  (43) 
scored

>  <source_iter>  (43) 
2

>  <source_parent_mol>  (43) 
0

>  <source_scenario>  (43) 
1 0

>  <source_rank_in_scored_call>  (43) 
6

>  <source_current_task>  (43) 
close_aromatic_ring

>  <scenario>  (43) 
1 0

>  <rotatable_bond_torsions>  (43) 
0,1,3,4

>  <reason_to_skip>  (43) 
some_atom_counter_exceeded

$$$$

     RDKit          3D

  6  5  0  0  0  0  0  0  0  0999 V2000
  -28.0390   -7.4530  -31.7250 C   0  0  0  0  0  0  0  0  0  0  0  0
  -27.5090   -6.5100  -32.5550 N   0  0  0  0  0  0  0  0  0  0  0  0
  -28.0120   -8.7980  -32.1210 N   0  0  0  0  0  0  0  0  0  0  0  0
  -27.6630   -5.2870  -31.8500 C   0  0  0  0  0  0  0  0  0  0  0  0
  -27.1370   -4.0430  -32.4270 C   0  0  0  0  0  0  0  0  0  0  0  0
    0.0000    0.0000    0.0000 S   0  0  0  0  0  0  0  0  0  0  0  0
  1  2  2  3
  1  3  1  0
  2  4  1  0
  4  5  1  0
  5  6  1  0
M  END
>  <name>  (44) 
Car Nac Nd0 Car Car Sul

>  <indices>  (44) 
[0, 1, 2]

>  <dummy>  (44) 
2

>  <tasks>  (44) 
probe_placing close_aromatic_ring close_aromatic_ring

>  <current_task>  (44) 
close_aromatic_ring

>  <prot_clashes>  (44) 
2

>  <NBS phar>  (44) 
0.1

>  <NBS_non-phar>  (44) 
0.8467942237854004

>  <NBS>  (44) 
0.9467942237854003

>  <source_stage>  (44) 
scored

>  <source_iter>  (44) 
2

>  <source_parent_mol>  (44) 
0

>  <source_scenario>  (44) 
1 0

>  <source_rank_in_scored_call>  (44) 
6

>  <source_current_task>  (44) 
close_aromatic_ring

>  <scenario>  (44) 
1 0

>  <rotatable_bond_torsions>  (44) 
0,1,3,4

>  <reason_to_skip>  (44) 
some_atom_counter_exceeded

$$$$

     RDKit          3D

  6  5  0  0  0  0  0  0  0  0999 V2000
  -28.0390   -7.4530  -31.7250 C   0  0  0  0  0  0  0  0  0  0  0  0
  -27.5090   -6.5100  -32.5550 N   0  0  0  0  0  0  0  0  0  0  0  0
  -28.0120   -8.7980  -32.1210 N   0  0  0  0  0  0  0  0  0  0  0  0
  -27.6630   -5.2870  -31.8500 C   0  0  0  0  0  0  0  0  0  0  0  0
  -27.1370   -4.0430  -32.4270 C   0  0  0  0  0  0  0  0  0  0  0  0
    0.0000    0.0000    0.0000 S   0  0  0  0  0  0  0  0  0  0  0  0
  1  2  2  3
  1  3  1  0
  2  4  1  0
  4  5  1  0
  5  6  1  0
M  END
>  <name>  (45) 
Car Nac Nd0 Car Car Sul

>  <indices>  (45) 
[0, 1, 2]

>  <dummy>  (45) 
2

>  <tasks>  (45) 
probe_placing close_aromatic_ring close_aromatic_ring

>  <current_task>  (45) 
close_aromatic_ring

>  <prot_clashes>  (45) 
2

>  <NBS phar>  (45) 
0.1

>  <NBS_non-phar>  (45) 
0.8467942237854004

>  <NBS>  (45) 
0.9467942237854003

>  <source_stage>  (45) 
scored

>  <source_iter>  (45) 
2

>  <source_parent_mol>  (45) 
0

>  <source_scenario>  (45) 
1 0

>  <source_rank_in_scored_call>  (45) 
6

>  <source_current_task>  (45) 
close_aromatic_ring

>  <scenario>  (45) 
1 0

>  <rotatable_bond_torsions>  (45) 
0,1,3,4

>  <reason_to_skip>  (45) 
some_atom_counter_exceeded

$$$$

     RDKit          3D

  6  5  0  0  0  0  0  0  0  0999 V2000
  -28.0390   -7.4530  -31.7250 C   0  0  0  0  0  0  0  0  0  0  0  0
  -27.5090   -6.5100  -32.5550 N   0  0  0  0  0  0  0  0  0  0  0  0
  -28.0120   -8.7980  -32.1210 N   0  0  0  0  0  0  0  0  0  0  0  0
  -27.6630   -5.2870  -31.8500 C   0  0  0  0  0  0  0  0  0  0  0  0
  -27.1370   -4.0430  -32.4270 C   0  0  0  0  0  0  0  0  0  0  0  0
  -26.1858   -3.2919  -32.0184 N   0  0  0  0  0  0  0  0  0  0  0  0
  1  2  2  3
  1  3  1  0
  2  4  1  0
  4  5  1  0
  5  6  2  0
M  END
>  <name>  (46) 
Car Nac Nd0 Car Car Nac

>  <indices>  (46) 
[0, 1, 2]

>  <dummy>  (46) 
2

>  <tasks>  (46) 
probe_placing close_aromatic_ring close_aromatic_ring

>  <current_task>  (46) 
close_aromatic_ring

>  <prot_clashes>  (46) 
2

>  <NBS phar>  (46) 
0.1

>  <NBS_non-phar>  (46) 
0.8467942237854004

>  <NBS>  (46) 
0.9467942237854003

>  <source_stage>  (46) 
scored

>  <source_iter>  (46) 
2

>  <source_parent_mol>  (46) 
0

>  <source_scenario>  (46) 
1 0

>  <source_rank_in_scored_call>  (46) 
6

>  <source_current_task>  (46) 
close_aromatic_ring

>  <scenario>  (46) 
1 0

>  <rotatable_bond_torsions>  (46) 
0,1,3,4

>  <reason_to_skip>  (46) 
incorrect arom ring closing

$$$$

     RDKit          3D

  6  5  0  0  0  0  0  0  0  0999 V2000
  -28.0390   -7.4530  -31.7250 C   0  0  0  0  0  0  0  0  0  0  0  0
  -27.5090   -6.5100  -32.5550 N   0  0  0  0  0  0  0  0  0  0  0  0
  -28.0120   -8.7980  -32.1210 N   0  0  0  0  0  0  0  0  0  0  0  0
  -27.6630   -5.2870  -31.8500 C   0  0  0  0  0  0  0  0  0  0  0  0
  -27.1370   -4.0430  -32.4270 C   0  0  0  0  0  0  0  0  0  0  0  0
  -27.8737   -3.0513  -32.5765 N   0  0  0  0  0  0  0  0  0  0  0  0
  1  2  2  3
  1  3  1  0
  2  4  1  0
  4  5  1  0
  5  6  1  0
M  END
>  <name>  (47) 
Car Nac Nd0 Car Car Nac

>  <indices>  (47) 
[0, 1, 2]

>  <dummy>  (47) 
2

>  <tasks>  (47) 
probe_placing close_aromatic_ring close_aromatic_ring

>  <current_task>  (47) 
close_aromatic_ring

>  <prot_clashes>  (47) 
2

>  <NBS phar>  (47) 
0.1

>  <NBS_non-phar>  (47) 
0.8467942237854004

>  <NBS>  (47) 
0.9467942237854003

>  <source_stage>  (47) 
scored

>  <source_iter>  (47) 
2

>  <source_parent_mol>  (47) 
0

>  <source_scenario>  (47) 
1 0

>  <source_rank_in_scored_call>  (47) 
6

>  <source_current_task>  (47) 
close_aromatic_ring

>  <scenario>  (47) 
1 0

>  <rotatable_bond_torsions>  (47) 
0,1,3,4

>  <reason_to_skip>  (47) 
incorrect arom ring closing

$$$$

     RDKit          3D

  6  5  0  0  0  0  0  0  0  0999 V2000
  -28.0390   -7.4530  -31.7250 C   0  0  0  0  0  0  0  0  0  0  0  0
  -27.5090   -6.5100  -32.5550 N   0  0  0  0  0  0  0  0  0  0  0  0
  -28.0120   -8.7980  -32.1210 N   0  0  0  0  0  0  0  0  0  0  0  0
  -27.6630   -5.2870  -31.8500 C   0  0  0  0  0  0  0  0  0  0  0  0
  -27.1370   -4.0430  -32.4270 C   0  0  0  0  0  0  0  0  0  0  0  0
  -27.8393   -2.9993  -32.8987 N   0  0  0  0  0  0  0  0  0  0  0  0
  1  2  2  3
  1  3  1  0
  2  4  1  0
  4  5  1  0
  5  6  2  0
M  END
>  <name>  (48) 
Car Nac Nd0 Car Car Nac

>  <indices>  (48) 
[0, 1, 2]

>  <dummy>  (48) 
2

>  <tasks>  (48) 
probe_placing close_aromatic_ring close_aromatic_ring

>  <current_task>  (48) 
close_aromatic_ring

>  <prot_clashes>  (48) 
2

>  <NBS phar>  (48) 
0.1

>  <NBS_non-phar>  (48) 
0.8467942237854004

>  <NBS>  (48) 
0.9467942237854003

>  <source_stage>  (48) 
scored

>  <source_iter>  (48) 
2

>  <source_parent_mol>  (48) 
0

>  <source_scenario>  (48) 
1 0

>  <source_rank_in_scored_call>  (48) 
6

>  <source_current_task>  (48) 
close_aromatic_ring

>  <scenario>  (48) 
1 0

>  <rotatable_bond_torsions>  (48) 
0,1,3,4

>  <reason_to_skip>  (48) 
incorrect arom ring closing

$$$$

     RDKit          3D

  6  5  0  0  0  0  0  0  0  0999 V2000
  -28.0390   -7.4530  -31.7250 C   0  0  0  0  0  0  0  0  0  0  0  0
  -27.5090   -6.5100  -32.5550 N   0  0  0  0  0  0  0  0  0  0  0  0
  -28.0120   -8.7980  -32.1210 N   0  0  0  0  0  0  0  0  0  0  0  0
  -27.6630   -5.2870  -31.8500 C   0  0  0  0  0  0  0  0  0  0  0  0
  -27.1370   -4.0430  -32.4270 C   0  0  0  0  0  0  0  0  0  0  0  0
    0.0000    0.0000    0.0000 O   0  0  0  0  0  0  0  0  0  0  0  0
  1  2  2  3
  1  3  1  0
  2  4  1  0
  4  5  1  0
  5  6  1  0
M  END
>  <name>  (49) 
Car Nac Nd0 Car Car O_a

>  <indices>  (49) 
[0, 1, 2]

>  <dummy>  (49) 
2

>  <tasks>  (49) 
probe_placing close_aromatic_ring close_aromatic_ring

>  <current_task>  (49) 
close_aromatic_ring

>  <prot_clashes>  (49) 
2

>  <NBS phar>  (49) 
0.1

>  <NBS_non-phar>  (49) 
0.8467942237854004

>  <NBS>  (49) 
0.9467942237854003

>  <source_stage>  (49) 
scored

>  <source_iter>  (49) 
2

>  <source_parent_mol>  (49) 
0

>  <source_scenario>  (49) 
1 0

>  <source_rank_in_scored_call>  (49) 
6

>  <source_current_task>  (49) 
close_aromatic_ring

>  <scenario>  (49) 
1 0

>  <rotatable_bond_torsions>  (49) 
0,1,3,4

>  <reason_to_skip>  (49) 
some_atom_counter_exceeded

$$$$

     RDKit          3D

  6  5  0  0  0  0  0  0  0  0999 V2000
  -28.0390   -7.4530  -31.7250 C   0  0  0  0  0  0  0  0  0  0  0  0
  -27.5090   -6.5100  -32.5550 N   0  0  0  0  0  0  0  0  0  0  0  0
  -28.0120   -8.7980  -32.1210 N   0  0  0  0  0  0  0  0  0  0  0  0
  -27.6630   -5.2870  -31.8500 C   0  0  0  0  0  0  0  0  0  0  0  0
  -27.1370   -4.0430  -32.4270 C   0  0  0  0  0  0  0  0  0  0  0  0
    0.0000    0.0000    0.0000 O   0  0  0  0  0  0  0  0  0  0  0  0
  1  2  2  3
  1  3  1  0
  2  4  1  0
  4  5  1  0
  5  6  1  0
M  END
>  <name>  (50) 
Car Nac Nd0 Car Car O_a

>  <indices>  (50) 
[0, 1, 2]

>  <dummy>  (50) 
2

>  <tasks>  (50) 
probe_placing close_aromatic_ring close_aromatic_ring

>  <current_task>  (50) 
close_aromatic_ring

>  <prot_clashes>  (50) 
2

>  <NBS phar>  (50) 
0.1

>  <NBS_non-phar>  (50) 
0.8467942237854004

>  <NBS>  (50) 
0.9467942237854003

>  <source_stage>  (50) 
scored

>  <source_iter>  (50) 
2

>  <source_parent_mol>  (50) 
0

>  <source_scenario>  (50) 
1 0

>  <source_rank_in_scored_call>  (50) 
6

>  <source_current_task>  (50) 
close_aromatic_ring

>  <scenario>  (50) 
1 0

>  <rotatable_bond_torsions>  (50) 
0,1,3,4

>  <reason_to_skip>  (50) 
some_atom_counter_exceeded

$$$$

     RDKit          3D

  6  5  0  0  0  0  0  0  0  0999 V2000
  -28.0390   -7.4530  -31.7250 C   0  0  0  0  0  0  0  0  0  0  0  0
  -27.5090   -6.5100  -32.5550 N   0  0  0  0  0  0  0  0  0  0  0  0
  -28.0120   -8.7980  -32.1210 N   0  0  0  0  0  0  0  0  0  0  0  0
  -27.6630   -5.2870  -31.8500 C   0  0  0  0  0  0  0  0  0  0  0  0
  -27.1370   -4.0430  -32.4270 C   0  0  0  0  0  0  0  0  0  0  0  0
  -26.1655   -3.4180  -31.8326 N   0  0  0  0  0  0  0  0  0  0  0  0
  1  2  2  3
  1  3  1  0
  2  4  1  0
  4  5  1  0
  5  6  1  0
M  END
>  <name>  (51) 
Car Nac Nd0 Car Car Nac

>  <indices>  (51) 
[0, 1, 2]

>  <dummy>  (51) 
2

>  <tasks>  (51) 
probe_placing close_aromatic_ring close_aromatic_ring

>  <current_task>  (51) 
close_aromatic_ring

>  <prot_clashes>  (51) 
2

>  <NBS phar>  (51) 
0.1

>  <NBS_non-phar>  (51) 
0.8467942237854004

>  <NBS>  (51) 
0.9467942237854003

>  <source_stage>  (51) 
scored

>  <source_iter>  (51) 
2

>  <source_parent_mol>  (51) 
0

>  <source_scenario>  (51) 
1 0

>  <source_rank_in_scored_call>  (51) 
6

>  <source_current_task>  (51) 
close_aromatic_ring

>  <scenario>  (51) 
1 0

>  <rotatable_bond_torsions>  (51) 
0,1,3,4

>  <reason_to_skip>  (51) 
incorrect arom ring closing

$$$$

     RDKit          3D

  6  5  0  0  0  0  0  0  0  0999 V2000
  -28.0390   -7.4530  -31.7250 C   0  0  0  0  0  0  0  0  0  0  0  0
  -27.5090   -6.5100  -32.5550 N   0  0  0  0  0  0  0  0  0  0  0  0
  -28.0120   -8.7980  -32.1210 N   0  0  0  0  0  0  0  0  0  0  0  0
  -27.6630   -5.2870  -31.8500 C   0  0  0  0  0  0  0  0  0  0  0  0
  -27.1370   -4.0430  -32.4270 C   0  0  0  0  0  0  0  0  0  0  0  0
    0.0000    0.0000    0.0000 S   0  0  0  0  0  0  0  0  0  0  0  0
  1  2  2  3
  1  3  1  0
  2  4  1  0
  4  5  1  0
  5  6  1  0
M  END
>  <name>  (52) 
Car Nac Nd0 Car Car Sul

>  <indices>  (52) 
[0, 1, 2]

>  <dummy>  (52) 
2

>  <tasks>  (52) 
probe_placing close_aromatic_ring close_aromatic_ring

>  <current_task>  (52) 
close_aromatic_ring

>  <prot_clashes>  (52) 
2

>  <NBS phar>  (52) 
0.1

>  <NBS_non-phar>  (52) 
0.8467942237854004

>  <NBS>  (52) 
0.9467942237854003

>  <source_stage>  (52) 
scored

>  <source_iter>  (52) 
2

>  <source_parent_mol>  (52) 
0

>  <source_scenario>  (52) 
1 0

>  <source_rank_in_scored_call>  (52) 
6

>  <source_current_task>  (52) 
close_aromatic_ring

>  <scenario>  (52) 
1 0

>  <rotatable_bond_torsions>  (52) 
0,1,3,4

>  <reason_to_skip>  (52) 
some_atom_counter_exceeded

$$$$

     RDKit          3D

  6  5  0  0  0  0  0  0  0  0999 V2000
  -28.0390   -7.4530  -31.7250 C   0  0  0  0  0  0  0  0  0  0  0  0
  -27.5090   -6.5100  -32.5550 N   0  0  0  0  0  0  0  0  0  0  0  0
  -28.0120   -8.7980  -32.1210 N   0  0  0  0  0  0  0  0  0  0  0  0
  -27.6630   -5.2870  -31.8500 C   0  0  0  0  0  0  0  0  0  0  0  0
  -27.1370   -4.0430  -32.4270 C   0  0  0  0  0  0  0  0  0  0  0  0
    0.0000    0.0000    0.0000 S   0  0  0  0  0  0  0  0  0  0  0  0
  1  2  2  3
  1  3  1  0
  2  4  1  0
  4  5  1  0
  5  6  1  0
M  END
>  <name>  (53) 
Car Nac Nd0 Car Car Sul

>  <indices>  (53) 
[0, 1, 2]

>  <dummy>  (53) 
2

>  <tasks>  (53) 
probe_placing close_aromatic_ring close_aromatic_ring

>  <current_task>  (53) 
close_aromatic_ring

>  <prot_clashes>  (53) 
2

>  <NBS phar>  (53) 
0.1

>  <NBS_non-phar>  (53) 
0.8467942237854004

>  <NBS>  (53) 
0.9467942237854003

>  <source_stage>  (53) 
scored

>  <source_iter>  (53) 
2

>  <source_parent_mol>  (53) 
0

>  <source_scenario>  (53) 
1 0

>  <source_rank_in_scored_call>  (53) 
6

>  <source_current_task>  (53) 
close_aromatic_ring

>  <scenario>  (53) 
1 0

>  <rotatable_bond_torsions>  (53) 
0,1,3,4

>  <reason_to_skip>  (53) 
some_atom_counter_exceeded

$$$$

     RDKit          3D

  6  5  0  0  0  0  0  0  0  0999 V2000
  -28.0390   -7.4530  -31.7250 C   0  0  0  0  0  0  0  0  0  0  0  0
  -27.5090   -6.5100  -32.5550 N   0  0  0  0  0  0  0  0  0  0  0  0
  -28.0120   -8.7980  -32.1210 N   0  0  0  0  0  0  0  0  0  0  0  0
  -27.6630   -5.2870  -31.8500 C   0  0  0  0  0  0  0  0  0  0  0  0
  -27.1370   -4.0430  -32.4270 C   0  0  0  0  0  0  0  0  0  0  0  0
  -26.4946   -4.1673  -33.6441 N   0  0  0  0  0  0  0  0  0  0  0  0
  1  2  2  3
  1  3  1  0
  2  4  1  0
  4  5  1  0
  5  6  1  0
M  END
>  <name>  (54) 
Car Nac Nd0 Car Car Nac

>  <indices>  (54) 
[0, 1, 2]

>  <dummy>  (54) 
2

>  <tasks>  (54) 
probe_placing close_aromatic_ring close_aromatic_ring

>  <current_task>  (54) 
close_aromatic_ring

>  <prot_clashes>  (54) 
2

>  <NBS phar>  (54) 
0.1

>  <NBS_non-phar>  (54) 
0.8467942237854004

>  <NBS>  (54) 
0.9467942237854003

>  <source_stage>  (54) 
scored

>  <source_iter>  (54) 
2

>  <source_parent_mol>  (54) 
0

>  <source_scenario>  (54) 
1 0

>  <source_rank_in_scored_call>  (54) 
6

>  <source_current_task>  (54) 
close_aromatic_ring

>  <scenario>  (54) 
1 0

>  <rotatable_bond_torsions>  (54) 
0,1,3,4

>  <reason_to_skip>  (54) 
subgraph mismatch

$$$$

     RDKit          3D

  6  5  0  0  0  0  0  0  0  0999 V2000
  -28.0390   -7.4530  -31.7250 C   0  0  0  0  0  0  0  0  0  0  0  0
  -27.5090   -6.5100  -32.5550 N   0  0  0  0  0  0  0  0  0  0  0  0
  -28.0120   -8.7980  -32.1210 N   0  0  0  0  0  0  0  0  0  0  0  0
  -27.6630   -5.2870  -31.8500 C   0  0  0  0  0  0  0  0  0  0  0  0
  -27.1370   -4.0430  -32.4270 C   0  0  0  0  0  0  0  0  0  0  0  0
  -26.5208   -3.7683  -33.6196 N   0  0  0  0  0  0  0  0  0  0  0  0
  1  2  2  3
  1  3  1  0
  2  4  1  0
  4  5  1  0
  5  6  1  0
M  END
>  <name>  (55) 
Car Nac Nd0 Car Car Nac

>  <indices>  (55) 
[0, 1, 2]

>  <dummy>  (55) 
2

>  <tasks>  (55) 
probe_placing close_aromatic_ring close_aromatic_ring

>  <current_task>  (55) 
close_aromatic_ring

>  <prot_clashes>  (55) 
2

>  <NBS phar>  (55) 
0.1

>  <NBS_non-phar>  (55) 
0.8467942237854004

>  <NBS>  (55) 
0.9467942237854003

>  <source_stage>  (55) 
scored

>  <source_iter>  (55) 
2

>  <source_parent_mol>  (55) 
0

>  <source_scenario>  (55) 
1 0

>  <source_rank_in_scored_call>  (55) 
6

>  <source_current_task>  (55) 
close_aromatic_ring

>  <scenario>  (55) 
1 0

>  <rotatable_bond_torsions>  (55) 
0,1,3,4

>  <reason_to_skip>  (55) 
subgraph mismatch

$$$$

     RDKit          3D

  6  5  0  0  0  0  0  0  0  0999 V2000
  -28.0390   -7.4530  -31.7250 C   0  0  0  0  0  0  0  0  0  0  0  0
  -27.5090   -6.5100  -32.5550 N   0  0  0  0  0  0  0  0  0  0  0  0
  -28.0120   -8.7980  -32.1210 N   0  0  0  0  0  0  0  0  0  0  0  0
  -27.6630   -5.2870  -31.8500 C   0  0  0  0  0  0  0  0  0  0  0  0
  -27.1370   -4.0430  -32.4270 C   0  0  0  0  0  0  0  0  0  0  0  0
  -26.5129   -4.0877  -33.6512 N   0  0  0  0  0  0  0  0  0  0  0  0
  1  2  2  3
  1  3  1  0
  2  4  1  0
  4  5  1  0
  5  6  2  0
M  END
>  <name>  (56) 
Car Nac Nd0 Car Car Nac

>  <indices>  (56) 
[0, 1, 2]

>  <dummy>  (56) 
2

>  <tasks>  (56) 
probe_placing close_aromatic_ring close_aromatic_ring

>  <current_task>  (56) 
close_aromatic_ring

>  <prot_clashes>  (56) 
2

>  <NBS phar>  (56) 
0.1

>  <NBS_non-phar>  (56) 
0.8467942237854004

>  <NBS>  (56) 
0.9467942237854003

>  <source_stage>  (56) 
scored

>  <source_iter>  (56) 
2

>  <source_parent_mol>  (56) 
0

>  <source_scenario>  (56) 
1 0

>  <source_rank_in_scored_call>  (56) 
6

>  <source_current_task>  (56) 
close_aromatic_ring

>  <scenario>  (56) 
1 0

>  <rotatable_bond_torsions>  (56) 
0,1,3,4

>  <reason_to_skip>  (56) 
subgraph mismatch

$$$$

     RDKit          3D

  6  5  0  0  0  0  0  0  0  0999 V2000
  -28.0390   -7.4530  -31.7250 C   0  0  0  0  0  0  0  0  0  0  0  0
  -27.5090   -6.5100  -32.5550 N   0  0  0  0  0  0  0  0  0  0  0  0
  -28.0120   -8.7980  -32.1210 N   0  0  0  0  0  0  0  0  0  0  0  0
  -27.6630   -5.2870  -31.8500 C   0  0  0  0  0  0  0  0  0  0  0  0
  -27.1370   -4.0430  -32.4270 C   0  0  0  0  0  0  0  0  0  0  0  0
  -26.5071   -4.1485  -33.6557 C   0  0  0  0  0  0  0  0  0  0  0  0
  1  2  2  3
  1  3  1  0
  2  4  1  0
  4  5  1  0
  5  6  1  0
M  END
>  <name>  (57) 
Car Nac Nd0 Car Car Car

>  <indices>  (57) 
[0, 1, 2]

>  <dummy>  (57) 
2

>  <tasks>  (57) 
probe_placing close_aromatic_ring close_aromatic_ring

>  <current_task>  (57) 
close_aromatic_ring

>  <prot_clashes>  (57) 
2

>  <NBS phar>  (57) 
0.1

>  <NBS_non-phar>  (57) 
0.8467942237854004

>  <NBS>  (57) 
0.9467942237854003

>  <source_stage>  (57) 
scored

>  <source_iter>  (57) 
2

>  <source_parent_mol>  (57) 
0

>  <source_scenario>  (57) 
1 0

>  <source_rank_in_scored_call>  (57) 
6

>  <source_current_task>  (57) 
close_aromatic_ring

>  <scenario>  (57) 
1 0

>  <rotatable_bond_torsions>  (57) 
0,1,3,4

>  <reason_to_skip>  (57) 
too many clashes (15 with max 8)

$$$$

     RDKit          3D

  6  5  0  0  0  0  0  0  0  0999 V2000
  -27.2180   -8.3970  -27.7650 C   0  0  0  0  0  0  0  0  0  0  0  0
  -27.5550   -8.3660  -29.0860 N   0  0  0  0  0  0  0  0  0  0  0  0
  -26.5800   -9.5360  -27.2540 N   0  0  0  0  0  0  0  0  0  0  0  0
  -28.1360   -7.0840  -29.2760 C   0  0  0  0  0  0  0  0  0  0  0  0
  -28.5670   -6.6720  -30.6180 C   0  0  0  0  0  0  0  0  0  0  0  0
  -28.4670   -7.2980  -31.9080 C   0  0  0  0  0  0  0  0  0  0  0  0
  1  2  2  3
  1  3  1  0
  2  4  1  0
  4  5  1  0
  5  6  1  0
M  END
>  <name>  (58) 
Car Nac Nd0 Car Car Car

>  <indices>  (58) 
[0, 1, 2]

>  <dummy>  (58) 
2

>  <tasks>  (58) 
probe_placing close_aromatic_ring close_aromatic_ring

>  <current_task>  (58) 
close_aromatic_ring

>  <prot_clashes>  (58) 
2

>  <NBS phar>  (58) 
0.1

>  <NBS_non-phar>  (58) 
0.8467942237854004

>  <NBS>  (58) 
0.9467942237854003

>  <source_stage>  (58) 
scored

>  <source_iter>  (58) 
2

>  <source_parent_mol>  (58) 
0

>  <source_scenario>  (58) 
1 0

>  <source_rank_in_scored_call>  (58) 
6

>  <source_current_task>  (58) 
close_aromatic_ring

>  <scenario>  (58) 
1 0

>  <rotatable_bond_torsions>  (58) 
0,1,3,4

>  <reason_to_skip>  (58) 
missing crucial interaction

$$$$

     RDKit          3D

  6  5  0  0  0  0  0  0  0  0999 V2000
  -28.0390   -7.4530  -31.7250 C   0  0  0  0  0  0  0  0  0  0  0  0
  -27.5090   -6.5100  -32.5550 N   0  0  0  0  0  0  0  0  0  0  0  0
  -28.0120   -8.7980  -32.1210 N   0  0  0  0  0  0  0  0  0  0  0  0
  -27.6630   -5.2870  -31.8500 C   0  0  0  0  0  0  0  0  0  0  0  0
  -27.1370   -4.0430  -32.4270 C   0  0  0  0  0  0  0  0  0  0  0  0
  -26.4943   -4.1210  -33.6412 C   0  0  0  0  0  0  0  0  0  0  0  0
  1  2  2  3
  1  3  1  0
  2  4  1  0
  4  5  1  0
  5  6  2  0
M  END
>  <name>  (59) 
Car Nac Nd0 Car Car Car

>  <indices>  (59) 
[0, 1, 2]

>  <dummy>  (59) 
2

>  <tasks>  (59) 
probe_placing close_aromatic_ring close_aromatic_ring

>  <current_task>  (59) 
close_aromatic_ring

>  <prot_clashes>  (59) 
2

>  <NBS phar>  (59) 
0.1

>  <NBS_non-phar>  (59) 
0.8467942237854004

>  <NBS>  (59) 
0.9467942237854003

>  <source_stage>  (59) 
scored

>  <source_iter>  (59) 
2

>  <source_parent_mol>  (59) 
0

>  <source_scenario>  (59) 
1 0

>  <source_rank_in_scored_call>  (59) 
6

>  <source_current_task>  (59) 
close_aromatic_ring

>  <scenario>  (59) 
1 0

>  <rotatable_bond_torsions>  (59) 
0,1,3,4

>  <reason_to_skip>  (59) 
too many clashes (13 with max 8)

$$$$

     RDKit          3D

  6  5  0  0  0  0  0  0  0  0999 V2000
  -28.5130   -8.0210  -31.9430 C   0  0  0  0  0  0  0  0  0  0  0  0
  -27.9000   -7.0740  -32.7100 N   0  0  0  0  0  0  0  0  0  0  0  0
  -28.3940   -9.3700  -32.3070 N   0  0  0  0  0  0  0  0  0  0  0  0
  -28.1840   -5.8470  -32.0550 C   0  0  0  0  0  0  0  0  0  0  0  0
  -27.6190   -4.5950  -32.5770 C   0  0  0  0  0  0  0  0  0  0  0  0
  -26.8400   -4.4910  -33.6310 N   0  0  0  0  0  0  0  0  0  0  0  0
  1  2  2  3
  1  3  1  0
  2  4  1  0
  4  5  1  0
  5  6  1  0
M  END
>  <name>  (60) 
Car Nac Nd0 Car Car Nd0

>  <indices>  (60) 
[0, 1, 2]

>  <dummy>  (60) 
2

>  <tasks>  (60) 
probe_placing close_aromatic_ring close_aromatic_ring

>  <current_task>  (60) 
close_aromatic_ring

>  <prot_clashes>  (60) 
2

>  <NBS phar>  (60) 
0.1

>  <NBS_non-phar>  (60) 
0.8467942237854004

>  <NBS>  (60) 
0.9467942237854003

>  <source_stage>  (60) 
scored

>  <source_iter>  (60) 
2

>  <source_parent_mol>  (60) 
0

>  <source_scenario>  (60) 
1 0

>  <source_rank_in_scored_call>  (60) 
6

>  <source_current_task>  (60) 
close_aromatic_ring

>  <scenario>  (60) 
1 0

>  <rotatable_bond_torsions>  (60) 
0,1,3,4

>  <reason_to_skip>  (60) 
repulsion after minimization

$$$$

     RDKit          3D

  6  5  0  0  0  0  0  0  0  0999 V2000
  -28.0390   -7.4530  -31.7250 C   0  0  0  0  0  0  0  0  0  0  0  0
  -27.5090   -6.5100  -32.5550 N   0  0  0  0  0  0  0  0  0  0  0  0
  -28.0120   -8.7980  -32.1210 N   0  0  0  0  0  0  0  0  0  0  0  0
  -27.6630   -5.2870  -31.8500 C   0  0  0  0  0  0  0  0  0  0  0  0
  -27.1370   -4.0430  -32.4270 C   0  0  0  0  0  0  0  0  0  0  0  0
  -26.5070   -3.9405  -33.5768 N   0  0  0  0  0  0  0  0  0  0  0  0
  1  2  2  3
  1  3  1  0
  2  4  1  0
  4  5  1  0
  5  6  1  0
M  END
>  <name>  (61) 
Car Nac Nd0 Car Car Nd0

>  <indices>  (61) 
[0, 1, 2]

>  <dummy>  (61) 
2

>  <tasks>  (61) 
probe_placing close_aromatic_ring close_aromatic_ring

>  <current_task>  (61) 
close_aromatic_ring

>  <prot_clashes>  (61) 
2

>  <NBS phar>  (61) 
0.1

>  <NBS_non-phar>  (61) 
0.8467942237854004

>  <NBS>  (61) 
0.9467942237854003

>  <source_stage>  (61) 
scored

>  <source_iter>  (61) 
2

>  <source_parent_mol>  (61) 
0

>  <source_scenario>  (61) 
1 0

>  <source_rank_in_scored_call>  (61) 
6

>  <source_current_task>  (61) 
close_aromatic_ring

>  <scenario>  (61) 
1 0

>  <rotatable_bond_torsions>  (61) 
0,1,3,4

>  <reason_to_skip>  (61) 
repulsion after minimization

$$$$

     RDKit          3D

  7  6  0  0  0  0  0  0  0  0999 V2000
  -28.4520   -7.3830  -32.1110 C   0  0  0  0  0  0  0  0  0  0  0  0
  -27.6200   -6.4090  -32.5790 N   0  0  0  0  0  0  0  0  0  0  0  0
  -28.3760   -8.6670  -32.6700 N   0  0  0  0  0  0  0  0  0  0  0  0
  -27.9250   -5.2690  -31.7900 C   0  0  0  0  0  0  0  0  0  0  0  0
  -27.1620   -4.0280  -31.9790 C   0  0  0  0  0  0  0  0  0  0  0  0
  -26.1670   -4.0540  -32.9420 C   0  0  0  0  0  0  0  0  0  0  0  0
  -25.8447   -5.2341  -33.8152 C   0  0  0  0  0  0  0  0  0  0  0  0
  1  3  1  0
  1  2  2  3
  2  4  1  0
  4  5  1  0
  5  6  1  0
  6  7  1  0
M  END
>  <name>  (1) 
Car Nac Nd0 Car Car Car Car

>  <indices>  (1) 
[0, 1, 2]

>  <dummy>  (1) 
2

>  <tasks>  (1) 
probe_placing close_aromatic_ring close_aromatic_ring close_aromatic_ring

>  <current_task>  (1) 
close_aromatic_ring

>  <prot_clashes>  (1) 
6

>  <NBS phar>  (1) 
0.12

>  <NBS_non-phar>  (1) 
0.5132619539896647

>  <NBS>  (1) 
0.6332619539896647

>  <source_stage>  (1) 
scored

>  <source_iter>  (1) 
3

>  <source_parent_mol>  (1) 
3

>  <source_scenario>  (1) 
1 0 3

>  <source_rank_in_scored_call>  (1) 
0

>  <source_current_task>  (1) 
close_aromatic_ring

>  <scenario>  (1) 
1 0 3

>  <rotatable_bond_torsions>  (1) 
0,1,3,4;1,3,4,5

>  <reason_to_skip>  (1) 
too many Car with no DBs

$$$$

     RDKit          3D

  7  6  0  0  0  0  0  0  0  0999 V2000
  -28.4520   -7.3830  -32.1110 C   0  0  0  0  0  0  0  0  0  0  0  0
  -27.6200   -6.4090  -32.5790 N   0  0  0  0  0  0  0  0  0  0  0  0
  -28.3760   -8.6670  -32.6700 N   0  0  0  0  0  0  0  0  0  0  0  0
  -27.9250   -5.2690  -31.7900 C   0  0  0  0  0  0  0  0  0  0  0  0
  -27.1620   -4.0280  -31.9790 C   0  0  0  0  0  0  0  0  0  0  0  0
  -26.1670   -4.0540  -32.9420 C   0  0  0  0  0  0  0  0  0  0  0  0
  -25.4103   -2.7928  -33.2328 N   0  0  0  0  0  0  0  0  0  0  0  0
  1  3  1  0
  1  2  2  3
  2  4  1  0
  4  5  1  0
  5  6  1  0
  6  7  1  0
M  END
>  <name>  (2) 
Car Nac Nd0 Car Car Car Nd0

>  <indices>  (2) 
[0, 1, 2]

>  <dummy>  (2) 
2

>  <tasks>  (2) 
probe_placing close_aromatic_ring close_aromatic_ring close_aromatic_ring

>  <current_task>  (2) 
close_aromatic_ring

>  <prot_clashes>  (2) 
6

>  <NBS phar>  (2) 
0.12

>  <NBS_non-phar>  (2) 
0.5132619539896647

>  <NBS>  (2) 
0.6332619539896647

>  <source_stage>  (2) 
scored

>  <source_iter>  (2) 
3

>  <source_parent_mol>  (2) 
3

>  <source_scenario>  (2) 
1 0 3

>  <source_rank_in_scored_call>  (2) 
0

>  <source_current_task>  (2) 
close_aromatic_ring

>  <scenario>  (2) 
1 0 3

>  <rotatable_bond_torsions>  (2) 
0,1,3,4;1,3,4,5

>  <reason_to_skip>  (2) 
incorrect arom ring closing

$$$$

     RDKit          3D

  7  6  0  0  0  0  0  0  0  0999 V2000
  -28.4520   -7.3830  -32.1110 C   0  0  0  0  0  0  0  0  0  0  0  0
  -27.6200   -6.4090  -32.5790 N   0  0  0  0  0  0  0  0  0  0  0  0
  -28.3760   -8.6670  -32.6700 N   0  0  0  0  0  0  0  0  0  0  0  0
  -27.9250   -5.2690  -31.7900 C   0  0  0  0  0  0  0  0  0  0  0  0
  -27.1620   -4.0280  -31.9790 C   0  0  0  0  0  0  0  0  0  0  0  0
  -26.1670   -4.0540  -32.9420 C   0  0  0  0  0  0  0  0  0  0  0  0
  -25.2896   -2.8571  -33.1373 N   0  0  0  0  0  0  0  0  0  0  0  0
  1  3  1  0
  1  2  2  3
  2  4  1  0
  4  5  1  0
  5  6  1  0
  6  7  1  0
M  END
>  <name>  (3) 
Car Nac Nd0 Car Car Car Nd0

>  <indices>  (3) 
[0, 1, 2]

>  <dummy>  (3) 
2

>  <tasks>  (3) 
probe_placing close_aromatic_ring close_aromatic_ring close_aromatic_ring

>  <current_task>  (3) 
close_aromatic_ring

>  <prot_clashes>  (3) 
6

>  <NBS phar>  (3) 
0.12

>  <NBS_non-phar>  (3) 
0.5132619539896647

>  <NBS>  (3) 
0.6332619539896647

>  <source_stage>  (3) 
scored

>  <source_iter>  (3) 
3

>  <source_parent_mol>  (3) 
3

>  <source_scenario>  (3) 
1 0 3

>  <source_rank_in_scored_call>  (3) 
0

>  <source_current_task>  (3) 
close_aromatic_ring

>  <scenario>  (3) 
1 0 3

>  <rotatable_bond_torsions>  (3) 
0,1,3,4;1,3,4,5

>  <reason_to_skip>  (3) 
incorrect arom ring closing

$$$$

     RDKit          3D

  7  6  0  0  0  0  0  0  0  0999 V2000
  -28.4520   -7.3830  -32.1110 C   0  0  0  0  0  0  0  0  0  0  0  0
  -27.6200   -6.4090  -32.5790 N   0  0  0  0  0  0  0  0  0  0  0  0
  -28.3760   -8.6670  -32.6700 N   0  0  0  0  0  0  0  0  0  0  0  0
  -27.9250   -5.2690  -31.7900 C   0  0  0  0  0  0  0  0  0  0  0  0
  -27.1620   -4.0280  -31.9790 C   0  0  0  0  0  0  0  0  0  0  0  0
  -26.1670   -4.0540  -32.9420 C   0  0  0  0  0  0  0  0  0  0  0  0
  -25.4709   -2.8974  -33.1104 N   0  0  0  0  0  0  0  0  0  0  0  0
  1  3  1  0
  1  2  2  3
  2  4  1  0
  4  5  1  0
  5  6  1  0
  6  7  1  0
M  END
>  <name>  (4) 
Car Nac Nd0 Car Car Car Nac

>  <indices>  (4) 
[0, 1, 2]

>  <dummy>  (4) 
2

>  <tasks>  (4) 
probe_placing close_aromatic_ring close_aromatic_ring close_aromatic_ring

>  <current_task>  (4) 
close_aromatic_ring

>  <prot_clashes>  (4) 
6

>  <NBS phar>  (4) 
0.12

>  <NBS_non-phar>  (4) 
0.5132619539896647

>  <NBS>  (4) 
0.6332619539896647

>  <source_stage>  (4) 
scored

>  <source_iter>  (4) 
3

>  <source_parent_mol>  (4) 
3

>  <source_scenario>  (4) 
1 0 3

>  <source_rank_in_scored_call>  (4) 
0

>  <source_current_task>  (4) 
close_aromatic_ring

>  <scenario>  (4) 
1 0 3

>  <rotatable_bond_torsions>  (4) 
0,1,3,4;1,3,4,5

>  <reason_to_skip>  (4) 
incorrect arom ring closing

$$$$

     RDKit          3D

  7  6  0  0  0  0  0  0  0  0999 V2000
  -28.4520   -7.3830  -32.1110 C   0  0  0  0  0  0  0  0  0  0  0  0
  -27.6200   -6.4090  -32.5790 N   0  0  0  0  0  0  0  0  0  0  0  0
  -28.3760   -8.6670  -32.6700 N   0  0  0  0  0  0  0  0  0  0  0  0
  -27.9250   -5.2690  -31.7900 C   0  0  0  0  0  0  0  0  0  0  0  0
  -27.1620   -4.0280  -31.9790 C   0  0  0  0  0  0  0  0  0  0  0  0
  -26.1670   -4.0540  -32.9420 C   0  0  0  0  0  0  0  0  0  0  0  0
  -25.4262   -2.9453  -33.1621 N   0  0  0  0  0  0  0  0  0  0  0  0
  1  3  1  0
  1  2  2  3
  2  4  1  0
  4  5  1  0
  5  6  1  0
  6  7  1  0
M  END
>  <name>  (5) 
Car Nac Nd0 Car Car Car Nac

>  <indices>  (5) 
[0, 1, 2]

>  <dummy>  (5) 
2

>  <tasks>  (5) 
probe_placing close_aromatic_ring close_aromatic_ring close_aromatic_ring

>  <current_task>  (5) 
close_aromatic_ring

>  <prot_clashes>  (5) 
6

>  <NBS phar>  (5) 
0.12

>  <NBS_non-phar>  (5) 
0.5132619539896647

>  <NBS>  (5) 
0.6332619539896647

>  <source_stage>  (5) 
scored

>  <source_iter>  (5) 
3

>  <source_parent_mol>  (5) 
3

>  <source_scenario>  (5) 
1 0 3

>  <source_rank_in_scored_call>  (5) 
0

>  <source_current_task>  (5) 
close_aromatic_ring

>  <scenario>  (5) 
1 0 3

>  <rotatable_bond_torsions>  (5) 
0,1,3,4;1,3,4,5

>  <reason_to_skip>  (5) 
incorrect arom ring closing

$$$$

     RDKit          3D

  7  6  0  0  0  0  0  0  0  0999 V2000
  -28.4520   -7.3830  -32.1110 C   0  0  0  0  0  0  0  0  0  0  0  0
  -27.6200   -6.4090  -32.5790 N   0  0  0  0  0  0  0  0  0  0  0  0
  -28.3760   -8.6670  -32.6700 N   0  0  0  0  0  0  0  0  0  0  0  0
  -27.9250   -5.2690  -31.7900 C   0  0  0  0  0  0  0  0  0  0  0  0
  -27.1620   -4.0280  -31.9790 C   0  0  0  0  0  0  0  0  0  0  0  0
  -26.1670   -4.0540  -32.9420 C   0  0  0  0  0  0  0  0  0  0  0  0
  -25.8781   -5.1892  -33.6923 N   0  0  0  0  0  0  0  0  0  0  0  0
  1  3  1  0
  1  2  2  3
  2  4  1  0
  4  5  1  0
  5  6  1  0
  6  7  2  0
M  END
>  <name>  (6) 
Car Nac Nd0 Car Car Car Nac

>  <indices>  (6) 
[0, 1, 2]

>  <dummy>  (6) 
2

>  <tasks>  (6) 
probe_placing close_aromatic_ring close_aromatic_ring close_aromatic_ring

>  <current_task>  (6) 
close_aromatic_ring

>  <prot_clashes>  (6) 
6

>  <NBS phar>  (6) 
0.12

>  <NBS_non-phar>  (6) 
0.5132619539896647

>  <NBS>  (6) 
0.6332619539896647

>  <source_stage>  (6) 
scored

>  <source_iter>  (6) 
3

>  <source_parent_mol>  (6) 
3

>  <source_scenario>  (6) 
1 0 3

>  <source_rank_in_scored_call>  (6) 
0

>  <source_current_task>  (6) 
close_aromatic_ring

>  <scenario>  (6) 
1 0 3

>  <rotatable_bond_torsions>  (6) 
0,1,3,4;1,3,4,5

>  <reason_to_skip>  (6) 
intramol repulsion

$$$$

     RDKit          3D

  7  6  0  0  0  0  0  0  0  0999 V2000
  -28.4520   -7.3830  -32.1110 C   0  0  0  0  0  0  0  0  0  0  0  0
  -27.6200   -6.4090  -32.5790 N   0  0  0  0  0  0  0  0  0  0  0  0
  -28.3760   -8.6670  -32.6700 N   0  0  0  0  0  0  0  0  0  0  0  0
  -27.9250   -5.2690  -31.7900 C   0  0  0  0  0  0  0  0  0  0  0  0
  -27.1620   -4.0280  -31.9790 C   0  0  0  0  0  0  0  0  0  0  0  0
  -26.1670   -4.0540  -32.9420 C   0  0  0  0  0  0  0  0  0  0  0  0
  -25.8848   -5.1879  -33.7042 N   0  0  0  0  0  0  0  0  0  0  0  0
  1  3  1  0
  1  2  2  3
  2  4  1  0
  4  5  1  0
  5  6  1  0
  6  7  1  0
M  END
>  <name>  (7) 
Car Nac Nd0 Car Car Car Nac

>  <indices>  (7) 
[0, 1, 2]

>  <dummy>  (7) 
2

>  <tasks>  (7) 
probe_placing close_aromatic_ring close_aromatic_ring close_aromatic_ring

>  <current_task>  (7) 
close_aromatic_ring

>  <prot_clashes>  (7) 
6

>  <NBS phar>  (7) 
0.12

>  <NBS_non-phar>  (7) 
0.5132619539896647

>  <NBS>  (7) 
0.6332619539896647

>  <source_stage>  (7) 
scored

>  <source_iter>  (7) 
3

>  <source_parent_mol>  (7) 
3

>  <source_scenario>  (7) 
1 0 3

>  <source_rank_in_scored_call>  (7) 
0

>  <source_current_task>  (7) 
close_aromatic_ring

>  <scenario>  (7) 
1 0 3

>  <rotatable_bond_torsions>  (7) 
0,1,3,4;1,3,4,5

>  <reason_to_skip>  (7) 
too many Car with no DBs

$$$$

     RDKit          3D

  7  6  0  0  0  0  0  0  0  0999 V2000
  -28.4520   -7.3830  -32.1110 C   0  0  0  0  0  0  0  0  0  0  0  0
  -27.6200   -6.4090  -32.5790 N   0  0  0  0  0  0  0  0  0  0  0  0
  -28.3760   -8.6670  -32.6700 N   0  0  0  0  0  0  0  0  0  0  0  0
  -27.9250   -5.2690  -31.7900 C   0  0  0  0  0  0  0  0  0  0  0  0
  -27.1620   -4.0280  -31.9790 C   0  0  0  0  0  0  0  0  0  0  0  0
  -26.1670   -4.0540  -32.9420 C   0  0  0  0  0  0  0  0  0  0  0  0
    0.0000    0.0000    0.0000 O   0  0  0  0  0  0  0  0  0  0  0  0
  1  3  1  0
  1  2  2  3
  2  4  1  0
  4  5  1  0
  5  6  1  0
  6  7  1  0
M  END
>  <name>  (8) 
Car Nac Nd0 Car Car Car O_a

>  <indices>  (8) 
[0, 1, 2]

>  <dummy>  (8) 
2

>  <tasks>  (8) 
probe_placing close_aromatic_ring close_aromatic_ring close_aromatic_ring

>  <current_task>  (8) 
close_aromatic_ring

>  <prot_clashes>  (8) 
6

>  <NBS phar>  (8) 
0.12

>  <NBS_non-phar>  (8) 
0.5132619539896647

>  <NBS>  (8) 
0.6332619539896647

>  <source_stage>  (8) 
scored

>  <source_iter>  (8) 
3

>  <source_parent_mol>  (8) 
3

>  <source_scenario>  (8) 
1 0 3

>  <source_rank_in_scored_call>  (8) 
0

>  <source_current_task>  (8) 
close_aromatic_ring

>  <scenario>  (8) 
1 0 3

>  <rotatable_bond_torsions>  (8) 
0,1,3,4;1,3,4,5

>  <reason_to_skip>  (8) 
some_atom_counter_exceeded

$$$$

     RDKit          3D

  7  6  0  0  0  0  0  0  0  0999 V2000
  -28.4520   -7.3830  -32.1110 C   0  0  0  0  0  0  0  0  0  0  0  0
  -27.6200   -6.4090  -32.5790 N   0  0  0  0  0  0  0  0  0  0  0  0
  -28.3760   -8.6670  -32.6700 N   0  0  0  0  0  0  0  0  0  0  0  0
  -27.9250   -5.2690  -31.7900 C   0  0  0  0  0  0  0  0  0  0  0  0
  -27.1620   -4.0280  -31.9790 C   0  0  0  0  0  0  0  0  0  0  0  0
  -26.1670   -4.0540  -32.9420 C   0  0  0  0  0  0  0  0  0  0  0  0
    0.0000    0.0000    0.0000 O   0  0  0  0  0  0  0  0  0  0  0  0
  1  3  1  0
  1  2  2  3
  2  4  1  0
  4  5  1  0
  5  6  1  0
  6  7  1  0
M  END
>  <name>  (9) 
Car Nac Nd0 Car Car Car O_a

>  <indices>  (9) 
[0, 1, 2]

>  <dummy>  (9) 
2

>  <tasks>  (9) 
probe_placing close_aromatic_ring close_aromatic_ring close_aromatic_ring

>  <current_task>  (9) 
close_aromatic_ring

>  <prot_clashes>  (9) 
6

>  <NBS phar>  (9) 
0.12

>  <NBS_non-phar>  (9) 
0.5132619539896647

>  <NBS>  (9) 
0.6332619539896647

>  <source_stage>  (9) 
scored

>  <source_iter>  (9) 
3

>  <source_parent_mol>  (9) 
3

>  <source_scenario>  (9) 
1 0 3

>  <source_rank_in_scored_call>  (9) 
0

>  <source_current_task>  (9) 
close_aromatic_ring

>  <scenario>  (9) 
1 0 3

>  <rotatable_bond_torsions>  (9) 
0,1,3,4;1,3,4,5

>  <reason_to_skip>  (9) 
some_atom_counter_exceeded

$$$$

     RDKit          3D

  7  6  0  0  0  0  0  0  0  0999 V2000
  -28.4520   -7.3830  -32.1110 C   0  0  0  0  0  0  0  0  0  0  0  0
  -27.6200   -6.4090  -32.5790 N   0  0  0  0  0  0  0  0  0  0  0  0
  -28.3760   -8.6670  -32.6700 N   0  0  0  0  0  0  0  0  0  0  0  0
  -27.9250   -5.2690  -31.7900 C   0  0  0  0  0  0  0  0  0  0  0  0
  -27.1620   -4.0280  -31.9790 C   0  0  0  0  0  0  0  0  0  0  0  0
  -26.1670   -4.0540  -32.9420 C   0  0  0  0  0  0  0  0  0  0  0  0
  -26.0271   -4.7120  -34.2188 C   0  0  0  0  0  0  0  0  0  0  0  0
  1  3  1  0
  1  2  2  3
  2  4  1  0
  4  5  1  0
  5  6  1  0
  6  7  1  0
M  END
>  <name>  (10) 
Car Nac Nd0 Car Car Car Car

>  <indices>  (10) 
[0, 1, 2]

>  <dummy>  (10) 
2

>  <tasks>  (10) 
probe_placing close_aromatic_ring close_aromatic_ring close_aromatic_ring

>  <current_task>  (10) 
close_aromatic_ring

>  <prot_clashes>  (10) 
6

>  <NBS phar>  (10) 
0.12

>  <NBS_non-phar>  (10) 
0.5132619539896647

>  <NBS>  (10) 
0.6332619539896647

>  <source_stage>  (10) 
scored

>  <source_iter>  (10) 
3

>  <source_parent_mol>  (10) 
3

>  <source_scenario>  (10) 
1 0 3

>  <source_rank_in_scored_call>  (10) 
0

>  <source_current_task>  (10) 
close_aromatic_ring

>  <scenario>  (10) 
1 0 3

>  <rotatable_bond_torsions>  (10) 
0,1,3,4;1,3,4,5

>  <reason_to_skip>  (10) 
incorrect arom ring closing

$$$$

     RDKit          3D

  7  6  0  0  0  0  0  0  0  0999 V2000
  -28.4520   -7.3830  -32.1110 C   0  0  0  0  0  0  0  0  0  0  0  0
  -27.6200   -6.4090  -32.5790 N   0  0  0  0  0  0  0  0  0  0  0  0
  -28.3760   -8.6670  -32.6700 N   0  0  0  0  0  0  0  0  0  0  0  0
  -27.9250   -5.2690  -31.7900 C   0  0  0  0  0  0  0  0  0  0  0  0
  -27.1620   -4.0280  -31.9790 C   0  0  0  0  0  0  0  0  0  0  0  0
  -26.1670   -4.0540  -32.9420 C   0  0  0  0  0  0  0  0  0  0  0  0
  -24.9820   -3.3450  -32.6995 N   0  0  0  0  0  0  0  0  0  0  0  0
  1  3  1  0
  1  2  2  3
  2  4  1  0
  4  5  1  0
  5  6  1  0
  6  7  2  0
M  END
>  <name>  (11) 
Car Nac Nd0 Car Car Car Nac

>  <indices>  (11) 
[0, 1, 2]

>  <dummy>  (11) 
2

>  <tasks>  (11) 
probe_placing close_aromatic_ring close_aromatic_ring close_aromatic_ring

>  <current_task>  (11) 
close_aromatic_ring

>  <prot_clashes>  (11) 
6

>  <NBS phar>  (11) 
0.12

>  <NBS_non-phar>  (11) 
0.5132619539896647

>  <NBS>  (11) 
0.6332619539896647

>  <source_stage>  (11) 
scored

>  <source_iter>  (11) 
3

>  <source_parent_mol>  (11) 
3

>  <source_scenario>  (11) 
1 0 3

>  <source_rank_in_scored_call>  (11) 
0

>  <source_current_task>  (11) 
close_aromatic_ring

>  <scenario>  (11) 
1 0 3

>  <rotatable_bond_torsions>  (11) 
0,1,3,4;1,3,4,5

>  <reason_to_skip>  (11) 
incorrect arom ring closing

$$$$

     RDKit          3D

  7  6  0  0  0  0  0  0  0  0999 V2000
  -28.4520   -7.3830  -32.1110 C   0  0  0  0  0  0  0  0  0  0  0  0
  -27.6200   -6.4090  -32.5790 N   0  0  0  0  0  0  0  0  0  0  0  0
  -28.3760   -8.6670  -32.6700 N   0  0  0  0  0  0  0  0  0  0  0  0
  -27.9250   -5.2690  -31.7900 C   0  0  0  0  0  0  0  0  0  0  0  0
  -27.1620   -4.0280  -31.9790 C   0  0  0  0  0  0  0  0  0  0  0  0
  -26.1670   -4.0540  -32.9420 C   0  0  0  0  0  0  0  0  0  0  0  0
  -24.9349   -3.2585  -33.0044 C   0  0  0  0  0  0  0  0  0  0  0  0
  1  3  1  0
  1  2  2  3
  2  4  1  0
  4  5  1  0
  5  6  1  0
  6  7  1  0
M  END
>  <name>  (12) 
Car Nac Nd0 Car Car Car Car

>  <indices>  (12) 
[0, 1, 2]

>  <dummy>  (12) 
2

>  <tasks>  (12) 
probe_placing close_aromatic_ring close_aromatic_ring close_aromatic_ring

>  <current_task>  (12) 
close_aromatic_ring

>  <prot_clashes>  (12) 
6

>  <NBS phar>  (12) 
0.12

>  <NBS_non-phar>  (12) 
0.5132619539896647

>  <NBS>  (12) 
0.6332619539896647

>  <source_stage>  (12) 
scored

>  <source_iter>  (12) 
3

>  <source_parent_mol>  (12) 
3

>  <source_scenario>  (12) 
1 0 3

>  <source_rank_in_scored_call>  (12) 
0

>  <source_current_task>  (12) 
close_aromatic_ring

>  <scenario>  (12) 
1 0 3

>  <rotatable_bond_torsions>  (12) 
0,1,3,4;1,3,4,5

>  <reason_to_skip>  (12) 
incorrect arom ring closing

$$$$

     RDKit          3D

  7  6  0  0  0  0  0  0  0  0999 V2000
  -28.4520   -7.3830  -32.1110 C   0  0  0  0  0  0  0  0  0  0  0  0
  -27.6200   -6.4090  -32.5790 N   0  0  0  0  0  0  0  0  0  0  0  0
  -28.3760   -8.6670  -32.6700 N   0  0  0  0  0  0  0  0  0  0  0  0
  -27.9250   -5.2690  -31.7900 C   0  0  0  0  0  0  0  0  0  0  0  0
  -27.1620   -4.0280  -31.9790 C   0  0  0  0  0  0  0  0  0  0  0  0
  -26.1670   -4.0540  -32.9420 C   0  0  0  0  0  0  0  0  0  0  0  0
  -25.3764   -2.8774  -33.0658 C   0  0  0  0  0  0  0  0  0  0  0  0
  1  3  1  0
  1  2  2  3
  2  4  1  0
  4  5  1  0
  5  6  1  0
  6  7  1  0
M  END
>  <name>  (13) 
Car Nac Nd0 Car Car Car Car

>  <indices>  (13) 
[0, 1, 2]

>  <dummy>  (13) 
2

>  <tasks>  (13) 
probe_placing close_aromatic_ring close_aromatic_ring close_aromatic_ring

>  <current_task>  (13) 
close_aromatic_ring

>  <prot_clashes>  (13) 
6

>  <NBS phar>  (13) 
0.12

>  <NBS_non-phar>  (13) 
0.5132619539896647

>  <NBS>  (13) 
0.6332619539896647

>  <source_stage>  (13) 
scored

>  <source_iter>  (13) 
3

>  <source_parent_mol>  (13) 
3

>  <source_scenario>  (13) 
1 0 3

>  <source_rank_in_scored_call>  (13) 
0

>  <source_current_task>  (13) 
close_aromatic_ring

>  <scenario>  (13) 
1 0 3

>  <rotatable_bond_torsions>  (13) 
0,1,3,4;1,3,4,5

>  <reason_to_skip>  (13) 
incorrect arom ring closing

$$$$

     RDKit          3D

  7  6  0  0  0  0  0  0  0  0999 V2000
  -28.4520   -7.3830  -32.1110 C   0  0  0  0  0  0  0  0  0  0  0  0
  -27.6200   -6.4090  -32.5790 N   0  0  0  0  0  0  0  0  0  0  0  0
  -28.3760   -8.6670  -32.6700 N   0  0  0  0  0  0  0  0  0  0  0  0
  -27.9250   -5.2690  -31.7900 C   0  0  0  0  0  0  0  0  0  0  0  0
  -27.1620   -4.0280  -31.9790 C   0  0  0  0  0  0  0  0  0  0  0  0
  -26.1670   -4.0540  -32.9420 C   0  0  0  0  0  0  0  0  0  0  0  0
  -25.6474   -4.9317  -33.8611 N   0  0  0  0  0  0  0  0  0  0  0  0
  1  3  1  0
  1  2  2  3
  2  4  1  0
  4  5  1  0
  5  6  1  0
  6  7  1  0
M  END
>  <name>  (14) 
Car Nac Nd0 Car Car Car Nd0

>  <indices>  (14) 
[0, 1, 2]

>  <dummy>  (14) 
2

>  <tasks>  (14) 
probe_placing close_aromatic_ring close_aromatic_ring close_aromatic_ring

>  <current_task>  (14) 
close_aromatic_ring

>  <prot_clashes>  (14) 
6

>  <NBS phar>  (14) 
0.12

>  <NBS_non-phar>  (14) 
0.5132619539896647

>  <NBS>  (14) 
0.6332619539896647

>  <source_stage>  (14) 
scored

>  <source_iter>  (14) 
3

>  <source_parent_mol>  (14) 
3

>  <source_scenario>  (14) 
1 0 3

>  <source_rank_in_scored_call>  (14) 
0

>  <source_current_task>  (14) 
close_aromatic_ring

>  <scenario>  (14) 
1 0 3

>  <rotatable_bond_torsions>  (14) 
0,1,3,4;1,3,4,5

>  <reason_to_skip>  (14) 
bad angles

$$$$

     RDKit          3D

  7  6  0  0  0  0  0  0  0  0999 V2000
  -28.4520   -7.3830  -32.1110 C   0  0  0  0  0  0  0  0  0  0  0  0
  -27.6200   -6.4090  -32.5790 N   0  0  0  0  0  0  0  0  0  0  0  0
  -28.3760   -8.6670  -32.6700 N   0  0  0  0  0  0  0  0  0  0  0  0
  -27.9250   -5.2690  -31.7900 C   0  0  0  0  0  0  0  0  0  0  0  0
  -27.1620   -4.0280  -31.9790 C   0  0  0  0  0  0  0  0  0  0  0  0
  -26.1670   -4.0540  -32.9420 C   0  0  0  0  0  0  0  0  0  0  0  0
  -26.0825   -4.8258  -34.0500 N   0  0  0  0  0  0  0  0  0  0  0  0
  1  3  1  0
  1  2  2  3
  2  4  1  0
  4  5  1  0
  5  6  1  0
  6  7  1  0
M  END
>  <name>  (15) 
Car Nac Nd0 Car Car Car Nac

>  <indices>  (15) 
[0, 1, 2]

>  <dummy>  (15) 
2

>  <tasks>  (15) 
probe_placing close_aromatic_ring close_aromatic_ring close_aromatic_ring

>  <current_task>  (15) 
close_aromatic_ring

>  <prot_clashes>  (15) 
6

>  <NBS phar>  (15) 
0.12

>  <NBS_non-phar>  (15) 
0.5132619539896647

>  <NBS>  (15) 
0.6332619539896647

>  <source_stage>  (15) 
scored

>  <source_iter>  (15) 
3

>  <source_parent_mol>  (15) 
3

>  <source_scenario>  (15) 
1 0 3

>  <source_rank_in_scored_call>  (15) 
0

>  <source_current_task>  (15) 
close_aromatic_ring

>  <scenario>  (15) 
1 0 3

>  <rotatable_bond_torsions>  (15) 
0,1,3,4;1,3,4,5

>  <reason_to_skip>  (15) 
incorrect arom ring closing

$$$$

     RDKit          3D

  7  6  0  0  0  0  0  0  0  0999 V2000
  -28.4520   -7.3830  -32.1110 C   0  0  0  0  0  0  0  0  0  0  0  0
  -27.6200   -6.4090  -32.5790 N   0  0  0  0  0  0  0  0  0  0  0  0
  -28.3760   -8.6670  -32.6700 N   0  0  0  0  0  0  0  0  0  0  0  0
  -27.9250   -5.2690  -31.7900 C   0  0  0  0  0  0  0  0  0  0  0  0
  -27.1620   -4.0280  -31.9790 C   0  0  0  0  0  0  0  0  0  0  0  0
  -26.1670   -4.0540  -32.9420 C   0  0  0  0  0  0  0  0  0  0  0  0
  -25.0429   -3.1634  -33.0471 C   0  0  0  0  0  0  0  0  0  0  0  0
  1  3  1  0
  1  2  2  3
  2  4  1  0
  4  5  1  0
  5  6  1  0
  6  7  2  0
M  END
>  <name>  (16) 
Car Nac Nd0 Car Car Car Car

>  <indices>  (16) 
[0, 1, 2]

>  <dummy>  (16) 
2

>  <tasks>  (16) 
probe_placing close_aromatic_ring close_aromatic_ring close_aromatic_ring

>  <current_task>  (16) 
close_aromatic_ring

>  <prot_clashes>  (16) 
6

>  <NBS phar>  (16) 
0.12

>  <NBS_non-phar>  (16) 
0.5132619539896647

>  <NBS>  (16) 
0.6332619539896647

>  <source_stage>  (16) 
scored

>  <source_iter>  (16) 
3

>  <source_parent_mol>  (16) 
3

>  <source_scenario>  (16) 
1 0 3

>  <source_rank_in_scored_call>  (16) 
0

>  <source_current_task>  (16) 
close_aromatic_ring

>  <scenario>  (16) 
1 0 3

>  <rotatable_bond_torsions>  (16) 
0,1,3,4;1,3,4,5

>  <reason_to_skip>  (16) 
incorrect arom ring closing

$$$$

     RDKit          3D

  7  6  0  0  0  0  0  0  0  0999 V2000
  -28.4520   -7.3830  -32.1110 C   0  0  0  0  0  0  0  0  0  0  0  0
  -27.6200   -6.4090  -32.5790 N   0  0  0  0  0  0  0  0  0  0  0  0
  -28.3760   -8.6670  -32.6700 N   0  0  0  0  0  0  0  0  0  0  0  0
  -27.9250   -5.2690  -31.7900 C   0  0  0  0  0  0  0  0  0  0  0  0
  -27.1620   -4.0280  -31.9790 C   0  0  0  0  0  0  0  0  0  0  0  0
  -26.1670   -4.0540  -32.9420 C   0  0  0  0  0  0  0  0  0  0  0  0
  -25.0219   -3.2700  -32.8531 N   0  0  0  0  0  0  0  0  0  0  0  0
  1  3  1  0
  1  2  2  3
  2  4  1  0
  4  5  1  0
  5  6  1  0
  6  7  1  0
M  END
>  <name>  (17) 
Car Nac Nd0 Car Car Car Nac

>  <indices>  (17) 
[0, 1, 2]

>  <dummy>  (17) 
2

>  <tasks>  (17) 
probe_placing close_aromatic_ring close_aromatic_ring close_aromatic_ring

>  <current_task>  (17) 
close_aromatic_ring

>  <prot_clashes>  (17) 
6

>  <NBS phar>  (17) 
0.12

>  <NBS_non-phar>  (17) 
0.5132619539896647

>  <NBS>  (17) 
0.6332619539896647

>  <source_stage>  (17) 
scored

>  <source_iter>  (17) 
3

>  <source_parent_mol>  (17) 
3

>  <source_scenario>  (17) 
1 0 3

>  <source_rank_in_scored_call>  (17) 
0

>  <source_current_task>  (17) 
close_aromatic_ring

>  <scenario>  (17) 
1 0 3

>  <rotatable_bond_torsions>  (17) 
0,1,3,4;1,3,4,5

>  <reason_to_skip>  (17) 
incorrect arom ring closing

$$$$

     RDKit          3D

  7  6  0  0  0  0  0  0  0  0999 V2000
  -28.4520   -7.3830  -32.1110 C   0  0  0  0  0  0  0  0  0  0  0  0
  -27.6200   -6.4090  -32.5790 N   0  0  0  0  0  0  0  0  0  0  0  0
  -28.3760   -8.6670  -32.6700 N   0  0  0  0  0  0  0  0  0  0  0  0
  -27.9250   -5.2690  -31.7900 C   0  0  0  0  0  0  0  0  0  0  0  0
  -27.1620   -4.0280  -31.9790 C   0  0  0  0  0  0  0  0  0  0  0  0
  -26.1670   -4.0540  -32.9420 C   0  0  0  0  0  0  0  0  0  0  0  0
  -26.0006   -4.7623  -34.1434 C   0  0  0  0  0  0  0  0  0  0  0  0
  1  3  1  0
  1  2  2  3
  2  4  1  0
  4  5  1  0
  5  6  1  0
  6  7  2  0
M  END
>  <name>  (18) 
Car Nac Nd0 Car Car Car Car

>  <indices>  (18) 
[0, 1, 2]

>  <dummy>  (18) 
2

>  <tasks>  (18) 
probe_placing close_aromatic_ring close_aromatic_ring close_aromatic_ring

>  <current_task>  (18) 
close_aromatic_ring

>  <prot_clashes>  (18) 
6

>  <NBS phar>  (18) 
0.12

>  <NBS_non-phar>  (18) 
0.5132619539896647

>  <NBS>  (18) 
0.6332619539896647

>  <source_stage>  (18) 
scored

>  <source_iter>  (18) 
3

>  <source_parent_mol>  (18) 
3

>  <source_scenario>  (18) 
1 0 3

>  <source_rank_in_scored_call>  (18) 
0

>  <source_current_task>  (18) 
close_aromatic_ring

>  <scenario>  (18) 
1 0 3

>  <rotatable_bond_torsions>  (18) 
0,1,3,4;1,3,4,5

>  <reason_to_skip>  (18) 
incorrect arom ring closing

$$$$

     RDKit          3D

  7  6  0  0  0  0  0  0  0  0999 V2000
  -28.4520   -7.3830  -32.1110 C   0  0  0  0  0  0  0  0  0  0  0  0
  -27.6200   -6.4090  -32.5790 N   0  0  0  0  0  0  0  0  0  0  0  0
  -28.3760   -8.6670  -32.6700 N   0  0  0  0  0  0  0  0  0  0  0  0
  -27.9250   -5.2690  -31.7900 C   0  0  0  0  0  0  0  0  0  0  0  0
  -27.1620   -4.0280  -31.9790 C   0  0  0  0  0  0  0  0  0  0  0  0
  -26.1670   -4.0540  -32.9420 C   0  0  0  0  0  0  0  0  0  0  0  0
  -25.4005   -2.9173  -33.1647 N   0  0  0  0  0  0  0  0  0  0  0  0
  1  3  1  0
  1  2  2  3
  2  4  1  0
  4  5  1  0
  5  6  1  0
  6  7  2  0
M  END
>  <name>  (19) 
Car Nac Nd0 Car Car Car Nac

>  <indices>  (19) 
[0, 1, 2]

>  <dummy>  (19) 
2

>  <tasks>  (19) 
probe_placing close_aromatic_ring close_aromatic_ring close_aromatic_ring

>  <current_task>  (19) 
close_aromatic_ring

>  <prot_clashes>  (19) 
6

>  <NBS phar>  (19) 
0.12

>  <NBS_non-phar>  (19) 
0.5132619539896647

>  <NBS>  (19) 
0.6332619539896647

>  <source_stage>  (19) 
scored

>  <source_iter>  (19) 
3

>  <source_parent_mol>  (19) 
3

>  <source_scenario>  (19) 
1 0 3

>  <source_rank_in_scored_call>  (19) 
0

>  <source_current_task>  (19) 
close_aromatic_ring

>  <scenario>  (19) 
1 0 3

>  <rotatable_bond_torsions>  (19) 
0,1,3,4;1,3,4,5

>  <reason_to_skip>  (19) 
incorrect arom ring closing

$$$$

     RDKit          3D

  7  6  0  0  0  0  0  0  0  0999 V2000
  -28.4520   -7.3830  -32.1110 C   0  0  0  0  0  0  0  0  0  0  0  0
  -27.6200   -6.4090  -32.5790 N   0  0  0  0  0  0  0  0  0  0  0  0
  -28.3760   -8.6670  -32.6700 N   0  0  0  0  0  0  0  0  0  0  0  0
  -27.9250   -5.2690  -31.7900 C   0  0  0  0  0  0  0  0  0  0  0  0
  -27.1620   -4.0280  -31.9790 C   0  0  0  0  0  0  0  0  0  0  0  0
  -26.1670   -4.0540  -32.9420 C   0  0  0  0  0  0  0  0  0  0  0  0
  -25.8694   -5.1286  -33.7078 N   0  0  0  0  0  0  0  0  0  0  0  0
  1  3  1  0
  1  2  2  3
  2  4  1  0
  4  5  1  0
  5  6  1  0
  6  7  2  0
M  END
>  <name>  (20) 
Car Nac Nd0 Car Car Car Nac

>  <indices>  (20) 
[0, 1, 2]

>  <dummy>  (20) 
2

>  <tasks>  (20) 
probe_placing close_aromatic_ring close_aromatic_ring close_aromatic_ring

>  <current_task>  (20) 
close_aromatic_ring

>  <prot_clashes>  (20) 
6

>  <NBS phar>  (20) 
0.12

>  <NBS_non-phar>  (20) 
0.5132619539896647

>  <NBS>  (20) 
0.6332619539896647

>  <source_stage>  (20) 
scored

>  <source_iter>  (20) 
3

>  <source_parent_mol>  (20) 
3

>  <source_scenario>  (20) 
1 0 3

>  <source_rank_in_scored_call>  (20) 
0

>  <source_current_task>  (20) 
close_aromatic_ring

>  <scenario>  (20) 
1 0 3

>  <rotatable_bond_torsions>  (20) 
0,1,3,4;1,3,4,5

>  <reason_to_skip>  (20) 
intramol repulsion

$$$$

     RDKit          3D

  7  6  0  0  0  0  0  0  0  0999 V2000
  -28.4520   -7.3830  -32.1110 C   0  0  0  0  0  0  0  0  0  0  0  0
  -27.6200   -6.4090  -32.5790 N   0  0  0  0  0  0  0  0  0  0  0  0
  -28.3760   -8.6670  -32.6700 N   0  0  0  0  0  0  0  0  0  0  0  0
  -27.9250   -5.2690  -31.7900 C   0  0  0  0  0  0  0  0  0  0  0  0
  -27.1620   -4.0280  -31.9790 C   0  0  0  0  0  0  0  0  0  0  0  0
  -26.1670   -4.0540  -32.9420 C   0  0  0  0  0  0  0  0  0  0  0  0
  -25.4114   -2.9057  -33.1457 N   0  0  0  0  0  0  0  0  0  0  0  0
  1  3  1  0
  1  2  2  3
  2  4  1  0
  4  5  1  0
  5  6  1  0
  6  7  1  0
M  END
>  <name>  (21) 
Car Nac Nd0 Car Car Car Nd0

>  <indices>  (21) 
[0, 1, 2]

>  <dummy>  (21) 
2

>  <tasks>  (21) 
probe_placing close_aromatic_ring close_aromatic_ring close_aromatic_ring

>  <current_task>  (21) 
close_aromatic_ring

>  <prot_clashes>  (21) 
6

>  <NBS phar>  (21) 
0.12

>  <NBS_non-phar>  (21) 
0.5132619539896647

>  <NBS>  (21) 
0.6332619539896647

>  <source_stage>  (21) 
scored

>  <source_iter>  (21) 
3

>  <source_parent_mol>  (21) 
3

>  <source_scenario>  (21) 
1 0 3

>  <source_rank_in_scored_call>  (21) 
0

>  <source_current_task>  (21) 
close_aromatic_ring

>  <scenario>  (21) 
1 0 3

>  <rotatable_bond_torsions>  (21) 
0,1,3,4;1,3,4,5

>  <reason_to_skip>  (21) 
incorrect arom ring closing

$$$$

     RDKit          3D

  7  6  0  0  0  0  0  0  0  0999 V2000
  -28.4520   -7.3830  -32.1110 C   0  0  0  0  0  0  0  0  0  0  0  0
  -27.6200   -6.4090  -32.5790 N   0  0  0  0  0  0  0  0  0  0  0  0
  -28.3760   -8.6670  -32.6700 N   0  0  0  0  0  0  0  0  0  0  0  0
  -27.9250   -5.2690  -31.7900 C   0  0  0  0  0  0  0  0  0  0  0  0
  -27.1620   -4.0280  -31.9790 C   0  0  0  0  0  0  0  0  0  0  0  0
  -26.1670   -4.0540  -32.9420 C   0  0  0  0  0  0  0  0  0  0  0  0
  -25.8458   -5.1321  -33.7137 N   0  0  0  0  0  0  0  0  0  0  0  0
  1  3  1  0
  1  2  2  3
  2  4  1  0
  4  5  1  0
  5  6  1  0
  6  7  1  0
M  END
>  <name>  (22) 
Car Nac Nd0 Car Car Car Nd0

>  <indices>  (22) 
[0, 1, 2]

>  <dummy>  (22) 
2

>  <tasks>  (22) 
probe_placing close_aromatic_ring close_aromatic_ring close_aromatic_ring

>  <current_task>  (22) 
close_aromatic_ring

>  <prot_clashes>  (22) 
6

>  <NBS phar>  (22) 
0.12

>  <NBS_non-phar>  (22) 
0.5132619539896647

>  <NBS>  (22) 
0.6332619539896647

>  <source_stage>  (22) 
scored

>  <source_iter>  (22) 
3

>  <source_parent_mol>  (22) 
3

>  <source_scenario>  (22) 
1 0 3

>  <source_rank_in_scored_call>  (22) 
0

>  <source_current_task>  (22) 
close_aromatic_ring

>  <scenario>  (22) 
1 0 3

>  <rotatable_bond_torsions>  (22) 
0,1,3,4;1,3,4,5

>  <reason_to_skip>  (22) 
too many Car with no DBs

$$$$

     RDKit          3D

  7  6  0  0  0  0  0  0  0  0999 V2000
  -28.4520   -7.3830  -32.1110 C   0  0  0  0  0  0  0  0  0  0  0  0
  -27.6200   -6.4090  -32.5790 N   0  0  0  0  0  0  0  0  0  0  0  0
  -28.3760   -8.6670  -32.6700 N   0  0  0  0  0  0  0  0  0  0  0  0
  -27.9250   -5.2690  -31.7900 C   0  0  0  0  0  0  0  0  0  0  0  0
  -27.1620   -4.0280  -31.9790 C   0  0  0  0  0  0  0  0  0  0  0  0
  -26.1670   -4.0540  -32.9420 C   0  0  0  0  0  0  0  0  0  0  0  0
  -25.3163   -2.7482  -33.1596 C   0  0  0  0  0  0  0  0  0  0  0  0
  1  3  1  0
  1  2  2  3
  2  4  1  0
  4  5  1  0
  5  6  1  0
  6  7  1  0
M  END
>  <name>  (23) 
Car Nac Nd0 Car Car Car Car

>  <indices>  (23) 
[0, 1, 2]

>  <dummy>  (23) 
2

>  <tasks>  (23) 
probe_placing close_aromatic_ring close_aromatic_ring close_aromatic_ring

>  <current_task>  (23) 
close_aromatic_ring

>  <prot_clashes>  (23) 
6

>  <NBS phar>  (23) 
0.12

>  <NBS_non-phar>  (23) 
0.5132619539896647

>  <NBS>  (23) 
0.6332619539896647

>  <source_stage>  (23) 
scored

>  <source_iter>  (23) 
3

>  <source_parent_mol>  (23) 
3

>  <source_scenario>  (23) 
1 0 3

>  <source_rank_in_scored_call>  (23) 
0

>  <source_current_task>  (23) 
close_aromatic_ring

>  <scenario>  (23) 
1 0 3

>  <rotatable_bond_torsions>  (23) 
0,1,3,4;1,3,4,5

>  <reason_to_skip>  (23) 
incorrect arom ring closing

$$$$

     RDKit          3D

  7  6  0  0  0  0  0  0  0  0999 V2000
  -28.4520   -7.3830  -32.1110 C   0  0  0  0  0  0  0  0  0  0  0  0
  -27.6200   -6.4090  -32.5790 N   0  0  0  0  0  0  0  0  0  0  0  0
  -28.3760   -8.6670  -32.6700 N   0  0  0  0  0  0  0  0  0  0  0  0
  -27.9250   -5.2690  -31.7900 C   0  0  0  0  0  0  0  0  0  0  0  0
  -27.1620   -4.0280  -31.9790 C   0  0  0  0  0  0  0  0  0  0  0  0
  -26.1670   -4.0540  -32.9420 C   0  0  0  0  0  0  0  0  0  0  0  0
  -25.7580   -5.0416  -33.7628 N   0  0  0  0  0  0  0  0  0  0  0  0
  1  3  1  0
  1  2  2  3
  2  4  1  0
  4  5  1  0
  5  6  1  0
  6  7  1  0
M  END
>  <name>  (24) 
Car Nac Nd0 Car Car Car Nd0

>  <indices>  (24) 
[0, 1, 2]

>  <dummy>  (24) 
2

>  <tasks>  (24) 
probe_placing close_aromatic_ring close_aromatic_ring close_aromatic_ring

>  <current_task>  (24) 
close_aromatic_ring

>  <prot_clashes>  (24) 
6

>  <NBS phar>  (24) 
0.12

>  <NBS_non-phar>  (24) 
0.5132619539896647

>  <NBS>  (24) 
0.6332619539896647

>  <source_stage>  (24) 
scored

>  <source_iter>  (24) 
3

>  <source_parent_mol>  (24) 
3

>  <source_scenario>  (24) 
1 0 3

>  <source_rank_in_scored_call>  (24) 
0

>  <source_current_task>  (24) 
close_aromatic_ring

>  <scenario>  (24) 
1 0 3

>  <rotatable_bond_torsions>  (24) 
0,1,3,4;1,3,4,5

>  <reason_to_skip>  (24) 
too many Car with no DBs

$$$$

     RDKit          3D

  7  6  0  0  0  0  0  0  0  0999 V2000
  -28.4520   -7.3830  -32.1110 C   0  0  0  0  0  0  0  0  0  0  0  0
  -27.6200   -6.4090  -32.5790 N   0  0  0  0  0  0  0  0  0  0  0  0
  -28.3760   -8.6670  -32.6700 N   0  0  0  0  0  0  0  0  0  0  0  0
  -27.9250   -5.2690  -31.7900 C   0  0  0  0  0  0  0  0  0  0  0  0
  -27.1620   -4.0280  -31.9790 C   0  0  0  0  0  0  0  0  0  0  0  0
  -26.1670   -4.0540  -32.9420 C   0  0  0  0  0  0  0  0  0  0  0  0
    0.0000    0.0000    0.0000 O   0  0  0  0  0  0  0  0  0  0  0  0
  1  3  1  0
  1  2  2  3
  2  4  1  0
  4  5  1  0
  5  6  1  0
  6  7  1  0
M  END
>  <name>  (25) 
Car Nac Nd0 Car Car Car O_a

>  <indices>  (25) 
[0, 1, 2]

>  <dummy>  (25) 
2

>  <tasks>  (25) 
probe_placing close_aromatic_ring close_aromatic_ring close_aromatic_ring

>  <current_task>  (25) 
close_aromatic_ring

>  <prot_clashes>  (25) 
6

>  <NBS phar>  (25) 
0.12

>  <NBS_non-phar>  (25) 
0.5132619539896647

>  <NBS>  (25) 
0.6332619539896647

>  <source_stage>  (25) 
scored

>  <source_iter>  (25) 
3

>  <source_parent_mol>  (25) 
3

>  <source_scenario>  (25) 
1 0 3

>  <source_rank_in_scored_call>  (25) 
0

>  <source_current_task>  (25) 
close_aromatic_ring

>  <scenario>  (25) 
1 0 3

>  <rotatable_bond_torsions>  (25) 
0,1,3,4;1,3,4,5

>  <reason_to_skip>  (25) 
some_atom_counter_exceeded

$$$$

     RDKit          3D

  7  6  0  0  0  0  0  0  0  0999 V2000
  -28.4520   -7.3830  -32.1110 C   0  0  0  0  0  0  0  0  0  0  0  0
  -27.6200   -6.4090  -32.5790 N   0  0  0  0  0  0  0  0  0  0  0  0
  -28.3760   -8.6670  -32.6700 N   0  0  0  0  0  0  0  0  0  0  0  0
  -27.9250   -5.2690  -31.7900 C   0  0  0  0  0  0  0  0  0  0  0  0
  -27.1620   -4.0280  -31.9790 C   0  0  0  0  0  0  0  0  0  0  0  0
  -26.1670   -4.0540  -32.9420 C   0  0  0  0  0  0  0  0  0  0  0  0
  -26.2302   -5.4393  -33.4769 C   0  0  0  0  0  0  0  0  0  0  0  0
  1  3  1  0
  1  2  2  3
  2  4  1  0
  4  5  1  0
  5  6  1  0
  6  7  2  0
M  END
>  <name>  (26) 
Car Nac Nd0 Car Car Car Car

>  <indices>  (26) 
[0, 1, 2]

>  <dummy>  (26) 
2

>  <tasks>  (26) 
probe_placing close_aromatic_ring close_aromatic_ring close_aromatic_ring

>  <current_task>  (26) 
close_aromatic_ring

>  <prot_clashes>  (26) 
6

>  <NBS phar>  (26) 
0.12

>  <NBS_non-phar>  (26) 
0.5132619539896647

>  <NBS>  (26) 
0.6332619539896647

>  <source_stage>  (26) 
scored

>  <source_iter>  (26) 
3

>  <source_parent_mol>  (26) 
3

>  <source_scenario>  (26) 
1 0 3

>  <source_rank_in_scored_call>  (26) 
0

>  <source_current_task>  (26) 
close_aromatic_ring

>  <scenario>  (26) 
1 0 3

>  <rotatable_bond_torsions>  (26) 
0,1,3,4;1,3,4,5

>  <reason_to_skip>  (26) 
incorrect arom ring closing

$$$$

     RDKit          3D

  7  6  0  0  0  0  0  0  0  0999 V2000
  -28.4520   -7.3830  -32.1110 C   0  0  0  0  0  0  0  0  0  0  0  0
  -27.6200   -6.4090  -32.5790 N   0  0  0  0  0  0  0  0  0  0  0  0
  -28.3760   -8.6670  -32.6700 N   0  0  0  0  0  0  0  0  0  0  0  0
  -27.9250   -5.2690  -31.7900 C   0  0  0  0  0  0  0  0  0  0  0  0
  -27.1620   -4.0280  -31.9790 C   0  0  0  0  0  0  0  0  0  0  0  0
  -26.1670   -4.0540  -32.9420 C   0  0  0  0  0  0  0  0  0  0  0  0
  -26.2334   -5.4569  -33.4737 C   0  0  0  0  0  0  0  0  0  0  0  0
  1  3  1  0
  1  2  2  3
  2  4  1  0
  4  5  1  0
  5  6  1  0
  6  7  1  0
M  END
>  <name>  (27) 
Car Nac Nd0 Car Car Car Car

>  <indices>  (27) 
[0, 1, 2]

>  <dummy>  (27) 
2

>  <tasks>  (27) 
probe_placing close_aromatic_ring close_aromatic_ring close_aromatic_ring

>  <current_task>  (27) 
close_aromatic_ring

>  <prot_clashes>  (27) 
6

>  <NBS phar>  (27) 
0.12

>  <NBS_non-phar>  (27) 
0.5132619539896647

>  <NBS>  (27) 
0.6332619539896647

>  <source_stage>  (27) 
scored

>  <source_iter>  (27) 
3

>  <source_parent_mol>  (27) 
3

>  <source_scenario>  (27) 
1 0 3

>  <source_rank_in_scored_call>  (27) 
0

>  <source_current_task>  (27) 
close_aromatic_ring

>  <scenario>  (27) 
1 0 3

>  <rotatable_bond_torsions>  (27) 
0,1,3,4;1,3,4,5

>  <reason_to_skip>  (27) 
incorrect arom ring closing

$$$$

     RDKit          3D

  7  6  0  0  0  0  0  0  0  0999 V2000
  -28.4520   -7.3830  -32.1110 C   0  0  0  0  0  0  0  0  0  0  0  0
  -27.6200   -6.4090  -32.5790 N   0  0  0  0  0  0  0  0  0  0  0  0
  -28.3760   -8.6670  -32.6700 N   0  0  0  0  0  0  0  0  0  0  0  0
  -27.9250   -5.2690  -31.7900 C   0  0  0  0  0  0  0  0  0  0  0  0
  -27.1620   -4.0280  -31.9790 C   0  0  0  0  0  0  0  0  0  0  0  0
  -26.1670   -4.0540  -32.9420 C   0  0  0  0  0  0  0  0  0  0  0  0
  -26.2648   -5.4385  -33.4466 N   0  0  0  0  0  0  0  0  0  0  0  0
  1  3  1  0
  1  2  2  3
  2  4  1  0
  4  5  1  0
  5  6  1  0
  6  7  1  0
M  END
>  <name>  (28) 
Car Nac Nd0 Car Car Car Nac

>  <indices>  (28) 
[0, 1, 2]

>  <dummy>  (28) 
2

>  <tasks>  (28) 
probe_placing close_aromatic_ring close_aromatic_ring close_aromatic_ring

>  <current_task>  (28) 
close_aromatic_ring

>  <prot_clashes>  (28) 
6

>  <NBS phar>  (28) 
0.12

>  <NBS_non-phar>  (28) 
0.5132619539896647

>  <NBS>  (28) 
0.6332619539896647

>  <source_stage>  (28) 
scored

>  <source_iter>  (28) 
3

>  <source_parent_mol>  (28) 
3

>  <source_scenario>  (28) 
1 0 3

>  <source_rank_in_scored_call>  (28) 
0

>  <source_current_task>  (28) 
close_aromatic_ring

>  <scenario>  (28) 
1 0 3

>  <rotatable_bond_torsions>  (28) 
0,1,3,4;1,3,4,5

>  <reason_to_skip>  (28) 
incorrect arom ring closing

$$$$

     RDKit          3D

  7  6  0  0  0  0  0  0  0  0999 V2000
  -28.4520   -7.3830  -32.1110 C   0  0  0  0  0  0  0  0  0  0  0  0
  -27.6200   -6.4090  -32.5790 N   0  0  0  0  0  0  0  0  0  0  0  0
  -28.3760   -8.6670  -32.6700 N   0  0  0  0  0  0  0  0  0  0  0  0
  -27.9250   -5.2690  -31.7900 C   0  0  0  0  0  0  0  0  0  0  0  0
  -27.1620   -4.0280  -31.9790 C   0  0  0  0  0  0  0  0  0  0  0  0
  -26.1670   -4.0540  -32.9420 C   0  0  0  0  0  0  0  0  0  0  0  0
  -26.2419   -5.3845  -33.4721 N   0  0  0  0  0  0  0  0  0  0  0  0
  1  3  1  0
  1  2  2  3
  2  4  1  0
  4  5  1  0
  5  6  1  0
  6  7  1  0
M  END
>  <name>  (29) 
Car Nac Nd0 Car Car Car Nd0

>  <indices>  (29) 
[0, 1, 2]

>  <dummy>  (29) 
2

>  <tasks>  (29) 
probe_placing close_aromatic_ring close_aromatic_ring close_aromatic_ring

>  <current_task>  (29) 
close_aromatic_ring

>  <prot_clashes>  (29) 
6

>  <NBS phar>  (29) 
0.12

>  <NBS_non-phar>  (29) 
0.5132619539896647

>  <NBS>  (29) 
0.6332619539896647

>  <source_stage>  (29) 
scored

>  <source_iter>  (29) 
3

>  <source_parent_mol>  (29) 
3

>  <source_scenario>  (29) 
1 0 3

>  <source_rank_in_scored_call>  (29) 
0

>  <source_current_task>  (29) 
close_aromatic_ring

>  <scenario>  (29) 
1 0 3

>  <rotatable_bond_torsions>  (29) 
0,1,3,4;1,3,4,5

>  <reason_to_skip>  (29) 
incorrect arom ring closing

$$$$

     RDKit          3D

  7  6  0  0  0  0  0  0  0  0999 V2000
  -28.4520   -7.3830  -32.1110 C   0  0  0  0  0  0  0  0  0  0  0  0
  -27.6200   -6.4090  -32.5790 N   0  0  0  0  0  0  0  0  0  0  0  0
  -28.3760   -8.6670  -32.6700 N   0  0  0  0  0  0  0  0  0  0  0  0
  -27.9250   -5.2690  -31.7900 C   0  0  0  0  0  0  0  0  0  0  0  0
  -27.1620   -4.0280  -31.9790 C   0  0  0  0  0  0  0  0  0  0  0  0
  -26.1670   -4.0540  -32.9420 C   0  0  0  0  0  0  0  0  0  0  0  0
  -26.1857   -3.2103  -34.1443 N   0  0  0  0  0  0  0  0  0  0  0  0
  1  3  1  0
  1  2  2  3
  2  4  1  0
  4  5  1  0
  5  6  1  0
  6  7  1  0
M  END
>  <name>  (30) 
Car Nac Nd0 Car Car Car Nac

>  <indices>  (30) 
[0, 1, 2]

>  <dummy>  (30) 
2

>  <tasks>  (30) 
probe_placing close_aromatic_ring close_aromatic_ring close_aromatic_ring

>  <current_task>  (30) 
close_aromatic_ring

>  <prot_clashes>  (30) 
6

>  <NBS phar>  (30) 
0.12

>  <NBS_non-phar>  (30) 
0.5132619539896647

>  <NBS>  (30) 
0.6332619539896647

>  <source_stage>  (30) 
scored

>  <source_iter>  (30) 
3

>  <source_parent_mol>  (30) 
3

>  <source_scenario>  (30) 
1 0 3

>  <source_rank_in_scored_call>  (30) 
0

>  <source_current_task>  (30) 
close_aromatic_ring

>  <scenario>  (30) 
1 0 3

>  <rotatable_bond_torsions>  (30) 
0,1,3,4;1,3,4,5

>  <reason_to_skip>  (30) 
incorrect arom ring closing

$$$$

     RDKit          3D

  7  6  0  0  0  0  0  0  0  0999 V2000
  -28.4520   -7.3830  -32.1110 C   0  0  0  0  0  0  0  0  0  0  0  0
  -27.6200   -6.4090  -32.5790 N   0  0  0  0  0  0  0  0  0  0  0  0
  -28.3760   -8.6670  -32.6700 N   0  0  0  0  0  0  0  0  0  0  0  0
  -27.9250   -5.2690  -31.7900 C   0  0  0  0  0  0  0  0  0  0  0  0
  -27.1620   -4.0280  -31.9790 C   0  0  0  0  0  0  0  0  0  0  0  0
  -26.1670   -4.0540  -32.9420 C   0  0  0  0  0  0  0  0  0  0  0  0
  -26.1610   -2.9506  -33.9459 C   0  0  0  0  0  0  0  0  0  0  0  0
  1  3  1  0
  1  2  2  3
  2  4  1  0
  4  5  1  0
  5  6  1  0
  6  7  1  0
M  END
>  <name>  (31) 
Car Nac Nd0 Car Car Car Car

>  <indices>  (31) 
[0, 1, 2]

>  <dummy>  (31) 
2

>  <tasks>  (31) 
probe_placing close_aromatic_ring close_aromatic_ring close_aromatic_ring

>  <current_task>  (31) 
close_aromatic_ring

>  <prot_clashes>  (31) 
6

>  <NBS phar>  (31) 
0.12

>  <NBS_non-phar>  (31) 
0.5132619539896647

>  <NBS>  (31) 
0.6332619539896647

>  <source_stage>  (31) 
scored

>  <source_iter>  (31) 
3

>  <source_parent_mol>  (31) 
3

>  <source_scenario>  (31) 
1 0 3

>  <source_rank_in_scored_call>  (31) 
0

>  <source_current_task>  (31) 
close_aromatic_ring

>  <scenario>  (31) 
1 0 3

>  <rotatable_bond_torsions>  (31) 
0,1,3,4;1,3,4,5

>  <reason_to_skip>  (31) 
incorrect arom ring closing

$$$$

     RDKit          3D

  7  6  0  0  0  0  0  0  0  0999 V2000
  -28.4520   -7.3830  -32.1110 C   0  0  0  0  0  0  0  0  0  0  0  0
  -27.6200   -6.4090  -32.5790 N   0  0  0  0  0  0  0  0  0  0  0  0
  -28.3760   -8.6670  -32.6700 N   0  0  0  0  0  0  0  0  0  0  0  0
  -27.9250   -5.2690  -31.7900 C   0  0  0  0  0  0  0  0  0  0  0  0
  -27.1620   -4.0280  -31.9790 C   0  0  0  0  0  0  0  0  0  0  0  0
  -26.1670   -4.0540  -32.9420 C   0  0  0  0  0  0  0  0  0  0  0  0
  -24.8549   -4.6477  -32.8831 N   0  0  0  0  0  0  0  0  0  0  0  0
  1  3  1  0
  1  2  2  3
  2  4  1  0
  4  5  1  0
  5  6  1  0
  6  7  1  0
M  END
>  <name>  (32) 
Car Nac Nd0 Car Car Car Nac

>  <indices>  (32) 
[0, 1, 2]

>  <dummy>  (32) 
2

>  <tasks>  (32) 
probe_placing close_aromatic_ring close_aromatic_ring close_aromatic_ring

>  <current_task>  (32) 
close_aromatic_ring

>  <prot_clashes>  (32) 
6

>  <NBS phar>  (32) 
0.12

>  <NBS_non-phar>  (32) 
0.5132619539896647

>  <NBS>  (32) 
0.6332619539896647

>  <source_stage>  (32) 
scored

>  <source_iter>  (32) 
3

>  <source_parent_mol>  (32) 
3

>  <source_scenario>  (32) 
1 0 3

>  <source_rank_in_scored_call>  (32) 
0

>  <source_current_task>  (32) 
close_aromatic_ring

>  <scenario>  (32) 
1 0 3

>  <rotatable_bond_torsions>  (32) 
0,1,3,4;1,3,4,5

>  <reason_to_skip>  (32) 
incorrect arom ring closing

$$$$

     RDKit          3D

  7  6  0  0  0  0  0  0  0  0999 V2000
  -28.4520   -7.3830  -32.1110 C   0  0  0  0  0  0  0  0  0  0  0  0
  -27.6200   -6.4090  -32.5790 N   0  0  0  0  0  0  0  0  0  0  0  0
  -28.3760   -8.6670  -32.6700 N   0  0  0  0  0  0  0  0  0  0  0  0
  -27.9250   -5.2690  -31.7900 C   0  0  0  0  0  0  0  0  0  0  0  0
  -27.1620   -4.0280  -31.9790 C   0  0  0  0  0  0  0  0  0  0  0  0
  -26.1670   -4.0540  -32.9420 C   0  0  0  0  0  0  0  0  0  0  0  0
  -26.1301   -3.2040  -34.0925 N   0  0  0  0  0  0  0  0  0  0  0  0
  1  3  1  0
  1  2  2  3
  2  4  1  0
  4  5  1  0
  5  6  1  0
  6  7  2  0
M  END
>  <name>  (33) 
Car Nac Nd0 Car Car Car Nac

>  <indices>  (33) 
[0, 1, 2]

>  <dummy>  (33) 
2

>  <tasks>  (33) 
probe_placing close_aromatic_ring close_aromatic_ring close_aromatic_ring

>  <current_task>  (33) 
close_aromatic_ring

>  <prot_clashes>  (33) 
6

>  <NBS phar>  (33) 
0.12

>  <NBS_non-phar>  (33) 
0.5132619539896647

>  <NBS>  (33) 
0.6332619539896647

>  <source_stage>  (33) 
scored

>  <source_iter>  (33) 
3

>  <source_parent_mol>  (33) 
3

>  <source_scenario>  (33) 
1 0 3

>  <source_rank_in_scored_call>  (33) 
0

>  <source_current_task>  (33) 
close_aromatic_ring

>  <scenario>  (33) 
1 0 3

>  <rotatable_bond_torsions>  (33) 
0,1,3,4;1,3,4,5

>  <reason_to_skip>  (33) 
incorrect arom ring closing

$$$$

     RDKit          3D

  7  6  0  0  0  0  0  0  0  0999 V2000
  -28.4520   -7.3830  -32.1110 C   0  0  0  0  0  0  0  0  0  0  0  0
  -27.6200   -6.4090  -32.5790 N   0  0  0  0  0  0  0  0  0  0  0  0
  -28.3760   -8.6670  -32.6700 N   0  0  0  0  0  0  0  0  0  0  0  0
  -27.9250   -5.2690  -31.7900 C   0  0  0  0  0  0  0  0  0  0  0  0
  -27.1620   -4.0280  -31.9790 C   0  0  0  0  0  0  0  0  0  0  0  0
  -26.1670   -4.0540  -32.9420 C   0  0  0  0  0  0  0  0  0  0  0  0
  -26.0980   -3.1021  -34.0139 N   0  0  0  0  0  0  0  0  0  0  0  0
  1  3  1  0
  1  2  2  3
  2  4  1  0
  4  5  1  0
  5  6  1  0
  6  7  1  0
M  END
>  <name>  (34) 
Car Nac Nd0 Car Car Car Nd0

>  <indices>  (34) 
[0, 1, 2]

>  <dummy>  (34) 
2

>  <tasks>  (34) 
probe_placing close_aromatic_ring close_aromatic_ring close_aromatic_ring

>  <current_task>  (34) 
close_aromatic_ring

>  <prot_clashes>  (34) 
6

>  <NBS phar>  (34) 
0.12

>  <NBS_non-phar>  (34) 
0.5132619539896647

>  <NBS>  (34) 
0.6332619539896647

>  <source_stage>  (34) 
scored

>  <source_iter>  (34) 
3

>  <source_parent_mol>  (34) 
3

>  <source_scenario>  (34) 
1 0 3

>  <source_rank_in_scored_call>  (34) 
0

>  <source_current_task>  (34) 
close_aromatic_ring

>  <scenario>  (34) 
1 0 3

>  <rotatable_bond_torsions>  (34) 
0,1,3,4;1,3,4,5

>  <reason_to_skip>  (34) 
incorrect arom ring closing

$$$$

     RDKit          3D

  7  6  0  0  0  0  0  0  0  0999 V2000
  -28.4520   -7.3830  -32.1110 C   0  0  0  0  0  0  0  0  0  0  0  0
  -27.6200   -6.4090  -32.5790 N   0  0  0  0  0  0  0  0  0  0  0  0
  -28.3760   -8.6670  -32.6700 N   0  0  0  0  0  0  0  0  0  0  0  0
  -27.9250   -5.2690  -31.7900 C   0  0  0  0  0  0  0  0  0  0  0  0
  -27.1620   -4.0280  -31.9790 C   0  0  0  0  0  0  0  0  0  0  0  0
  -26.1670   -4.0540  -32.9420 C   0  0  0  0  0  0  0  0  0  0  0  0
    0.0000    0.0000    0.0000 O   0  0  0  0  0  0  0  0  0  0  0  0
  1  3  1  0
  1  2  2  3
  2  4  1  0
  4  5  1  0
  5  6  1  0
  6  7  1  0
M  END
>  <name>  (35) 
Car Nac Nd0 Car Car Car O_a

>  <indices>  (35) 
[0, 1, 2]

>  <dummy>  (35) 
2

>  <tasks>  (35) 
probe_placing close_aromatic_ring close_aromatic_ring close_aromatic_ring

>  <current_task>  (35) 
close_aromatic_ring

>  <prot_clashes>  (35) 
6

>  <NBS phar>  (35) 
0.12

>  <NBS_non-phar>  (35) 
0.5132619539896647

>  <NBS>  (35) 
0.6332619539896647

>  <source_stage>  (35) 
scored

>  <source_iter>  (35) 
3

>  <source_parent_mol>  (35) 
3

>  <source_scenario>  (35) 
1 0 3

>  <source_rank_in_scored_call>  (35) 
0

>  <source_current_task>  (35) 
close_aromatic_ring

>  <scenario>  (35) 
1 0 3

>  <rotatable_bond_torsions>  (35) 
0,1,3,4;1,3,4,5

>  <reason_to_skip>  (35) 
some_atom_counter_exceeded

$$$$

     RDKit          3D

  7  6  0  0  0  0  0  0  0  0999 V2000
  -28.4520   -7.3830  -32.1110 C   0  0  0  0  0  0  0  0  0  0  0  0
  -27.6200   -6.4090  -32.5790 N   0  0  0  0  0  0  0  0  0  0  0  0
  -28.3760   -8.6670  -32.6700 N   0  0  0  0  0  0  0  0  0  0  0  0
  -27.9250   -5.2690  -31.7900 C   0  0  0  0  0  0  0  0  0  0  0  0
  -27.1620   -4.0280  -31.9790 C   0  0  0  0  0  0  0  0  0  0  0  0
  -26.1670   -4.0540  -32.9420 C   0  0  0  0  0  0  0  0  0  0  0  0
  -24.7982   -4.5237  -32.8955 C   0  0  0  0  0  0  0  0  0  0  0  0
  1  3  1  0
  1  2  2  3
  2  4  1  0
  4  5  1  0
  5  6  1  0
  6  7  2  0
M  END
>  <name>  (36) 
Car Nac Nd0 Car Car Car Car

>  <indices>  (36) 
[0, 1, 2]

>  <dummy>  (36) 
2

>  <tasks>  (36) 
probe_placing close_aromatic_ring close_aromatic_ring close_aromatic_ring

>  <current_task>  (36) 
close_aromatic_ring

>  <prot_clashes>  (36) 
6

>  <NBS phar>  (36) 
0.12

>  <NBS_non-phar>  (36) 
0.5132619539896647

>  <NBS>  (36) 
0.6332619539896647

>  <source_stage>  (36) 
scored

>  <source_iter>  (36) 
3

>  <source_parent_mol>  (36) 
3

>  <source_scenario>  (36) 
1 0 3

>  <source_rank_in_scored_call>  (36) 
0

>  <source_current_task>  (36) 
close_aromatic_ring

>  <scenario>  (36) 
1 0 3

>  <rotatable_bond_torsions>  (36) 
0,1,3,4;1,3,4,5

>  <reason_to_skip>  (36) 
incorrect arom ring closing

$$$$

     RDKit          3D

  7  6  0  0  0  0  0  0  0  0999 V2000
  -28.4520   -7.3830  -32.1110 C   0  0  0  0  0  0  0  0  0  0  0  0
  -27.6200   -6.4090  -32.5790 N   0  0  0  0  0  0  0  0  0  0  0  0
  -28.3760   -8.6670  -32.6700 N   0  0  0  0  0  0  0  0  0  0  0  0
  -27.9250   -5.2690  -31.7900 C   0  0  0  0  0  0  0  0  0  0  0  0
  -27.1620   -4.0280  -31.9790 C   0  0  0  0  0  0  0  0  0  0  0  0
  -26.1670   -4.0540  -32.9420 C   0  0  0  0  0  0  0  0  0  0  0  0
  -26.2458   -3.2648  -34.1300 C   0  0  0  0  0  0  0  0  0  0  0  0
  1  3  1  0
  1  2  2  3
  2  4  1  0
  4  5  1  0
  5  6  1  0
  6  7  1  0
M  END
>  <name>  (37) 
Car Nac Nd0 Car Car Car Car

>  <indices>  (37) 
[0, 1, 2]

>  <dummy>  (37) 
2

>  <tasks>  (37) 
probe_placing close_aromatic_ring close_aromatic_ring close_aromatic_ring

>  <current_task>  (37) 
close_aromatic_ring

>  <prot_clashes>  (37) 
6

>  <NBS phar>  (37) 
0.12

>  <NBS_non-phar>  (37) 
0.5132619539896647

>  <NBS>  (37) 
0.6332619539896647

>  <source_stage>  (37) 
scored

>  <source_iter>  (37) 
3

>  <source_parent_mol>  (37) 
3

>  <source_scenario>  (37) 
1 0 3

>  <source_rank_in_scored_call>  (37) 
0

>  <source_current_task>  (37) 
close_aromatic_ring

>  <scenario>  (37) 
1 0 3

>  <rotatable_bond_torsions>  (37) 
0,1,3,4;1,3,4,5

>  <reason_to_skip>  (37) 
incorrect arom ring closing

$$$$

     RDKit          3D

  7  6  0  0  0  0  0  0  0  0999 V2000
  -28.4520   -7.3830  -32.1110 C   0  0  0  0  0  0  0  0  0  0  0  0
  -27.6200   -6.4090  -32.5790 N   0  0  0  0  0  0  0  0  0  0  0  0
  -28.3760   -8.6670  -32.6700 N   0  0  0  0  0  0  0  0  0  0  0  0
  -27.9250   -5.2690  -31.7900 C   0  0  0  0  0  0  0  0  0  0  0  0
  -27.1620   -4.0280  -31.9790 C   0  0  0  0  0  0  0  0  0  0  0  0
  -26.1670   -4.0540  -32.9420 C   0  0  0  0  0  0  0  0  0  0  0  0
  -26.3488   -3.8947  -34.3426 C   0  0  0  0  0  0  0  0  0  0  0  0
  1  3  1  0
  1  2  2  3
  2  4  1  0
  4  5  1  0
  5  6  1  0
  6  7  2  0
M  END
>  <name>  (38) 
Car Nac Nd0 Car Car Car Car

>  <indices>  (38) 
[0, 1, 2]

>  <dummy>  (38) 
2

>  <tasks>  (38) 
probe_placing close_aromatic_ring close_aromatic_ring close_aromatic_ring

>  <current_task>  (38) 
close_aromatic_ring

>  <prot_clashes>  (38) 
6

>  <NBS phar>  (38) 
0.12

>  <NBS_non-phar>  (38) 
0.5132619539896647

>  <NBS>  (38) 
0.6332619539896647

>  <source_stage>  (38) 
scored

>  <source_iter>  (38) 
3

>  <source_parent_mol>  (38) 
3

>  <source_scenario>  (38) 
1 0 3

>  <source_rank_in_scored_call>  (38) 
0

>  <source_current_task>  (38) 
close_aromatic_ring

>  <scenario>  (38) 
1 0 3

>  <rotatable_bond_torsions>  (38) 
0,1,3,4;1,3,4,5

>  <reason_to_skip>  (38) 
incorrect arom ring closing

$$$$

     RDKit          3D

  7  6  0  0  0  0  0  0  0  0999 V2000
  -28.4520   -7.3830  -32.1110 C   0  0  0  0  0  0  0  0  0  0  0  0
  -27.6200   -6.4090  -32.5790 N   0  0  0  0  0  0  0  0  0  0  0  0
  -28.3760   -8.6670  -32.6700 N   0  0  0  0  0  0  0  0  0  0  0  0
  -27.9250   -5.2690  -31.7900 C   0  0  0  0  0  0  0  0  0  0  0  0
  -27.1620   -4.0280  -31.9790 C   0  0  0  0  0  0  0  0  0  0  0  0
  -26.1670   -4.0540  -32.9420 C   0  0  0  0  0  0  0  0  0  0  0  0
    0.0000    0.0000    0.0000 S   0  0  0  0  0  0  0  0  0  0  0  0
  1  3  1  0
  1  2  2  3
  2  4  1  0
  4  5  1  0
  5  6  1  0
  6  7  1  0
M  END
>  <name>  (39) 
Car Nac Nd0 Car Car Car Sul

>  <indices>  (39) 
[0, 1, 2]

>  <dummy>  (39) 
2

>  <tasks>  (39) 
probe_placing close_aromatic_ring close_aromatic_ring close_aromatic_ring

>  <current_task>  (39) 
close_aromatic_ring

>  <prot_clashes>  (39) 
6

>  <NBS phar>  (39) 
0.12

>  <NBS_non-phar>  (39) 
0.5132619539896647

>  <NBS>  (39) 
0.6332619539896647

>  <source_stage>  (39) 
scored

>  <source_iter>  (39) 
3

>  <source_parent_mol>  (39) 
3

>  <source_scenario>  (39) 
1 0 3

>  <source_rank_in_scored_call>  (39) 
0

>  <source_current_task>  (39) 
close_aromatic_ring

>  <scenario>  (39) 
1 0 3

>  <rotatable_bond_torsions>  (39) 
0,1,3,4;1,3,4,5

>  <reason_to_skip>  (39) 
some_atom_counter_exceeded

$$$$

     RDKit          3D

  7  6  0  0  0  0  0  0  0  0999 V2000
  -28.4520   -7.3830  -32.1110 C   0  0  0  0  0  0  0  0  0  0  0  0
  -27.6200   -6.4090  -32.5790 N   0  0  0  0  0  0  0  0  0  0  0  0
  -28.3760   -8.6670  -32.6700 N   0  0  0  0  0  0  0  0  0  0  0  0
  -27.9250   -5.2690  -31.7900 C   0  0  0  0  0  0  0  0  0  0  0  0
  -27.1620   -4.0280  -31.9790 C   0  0  0  0  0  0  0  0  0  0  0  0
  -26.1670   -4.0540  -32.9420 C   0  0  0  0  0  0  0  0  0  0  0  0
    0.0000    0.0000    0.0000 S   0  0  0  0  0  0  0  0  0  0  0  0
  1  3  1  0
  1  2  2  3
  2  4  1  0
  4  5  1  0
  5  6  1  0
  6  7  1  0
M  END
>  <name>  (40) 
Car Nac Nd0 Car Car Car Sul

>  <indices>  (40) 
[0, 1, 2]

>  <dummy>  (40) 
2

>  <tasks>  (40) 
probe_placing close_aromatic_ring close_aromatic_ring close_aromatic_ring

>  <current_task>  (40) 
close_aromatic_ring

>  <prot_clashes>  (40) 
6

>  <NBS phar>  (40) 
0.12

>  <NBS_non-phar>  (40) 
0.5132619539896647

>  <NBS>  (40) 
0.6332619539896647

>  <source_stage>  (40) 
scored

>  <source_iter>  (40) 
3

>  <source_parent_mol>  (40) 
3

>  <source_scenario>  (40) 
1 0 3

>  <source_rank_in_scored_call>  (40) 
0

>  <source_current_task>  (40) 
close_aromatic_ring

>  <scenario>  (40) 
1 0 3

>  <rotatable_bond_torsions>  (40) 
0,1,3,4;1,3,4,5

>  <reason_to_skip>  (40) 
some_atom_counter_exceeded

$$$$

     RDKit          3D

  7  6  0  0  0  0  0  0  0  0999 V2000
  -28.4520   -7.3830  -32.1110 C   0  0  0  0  0  0  0  0  0  0  0  0
  -27.6200   -6.4090  -32.5790 N   0  0  0  0  0  0  0  0  0  0  0  0
  -28.3760   -8.6670  -32.6700 N   0  0  0  0  0  0  0  0  0  0  0  0
  -27.9250   -5.2690  -31.7900 C   0  0  0  0  0  0  0  0  0  0  0  0
  -27.1620   -4.0280  -31.9790 C   0  0  0  0  0  0  0  0  0  0  0  0
  -26.1670   -4.0540  -32.9420 C   0  0  0  0  0  0  0  0  0  0  0  0
  -25.5502   -4.9391  -33.8303 N   0  0  0  0  0  0  0  0  0  0  0  0
  1  3  1  0
  1  2  2  3
  2  4  1  0
  4  5  1  0
  5  6  1  0
  6  7  1  0
M  END
>  <name>  (41) 
Car Nac Nd0 Car Car Car Nac

>  <indices>  (41) 
[0, 1, 2]

>  <dummy>  (41) 
2

>  <tasks>  (41) 
probe_placing close_aromatic_ring close_aromatic_ring close_aromatic_ring

>  <current_task>  (41) 
close_aromatic_ring

>  <prot_clashes>  (41) 
6

>  <NBS phar>  (41) 
0.12

>  <NBS_non-phar>  (41) 
0.5132619539896647

>  <NBS>  (41) 
0.6332619539896647

>  <source_stage>  (41) 
scored

>  <source_iter>  (41) 
3

>  <source_parent_mol>  (41) 
3

>  <source_scenario>  (41) 
1 0 3

>  <source_rank_in_scored_call>  (41) 
0

>  <source_current_task>  (41) 
close_aromatic_ring

>  <scenario>  (41) 
1 0 3

>  <rotatable_bond_torsions>  (41) 
0,1,3,4;1,3,4,5

>  <reason_to_skip>  (41) 
bad angles

$$$$

     RDKit          3D

  7  6  0  0  0  0  0  0  0  0999 V2000
  -28.4520   -7.3830  -32.1110 C   0  0  0  0  0  0  0  0  0  0  0  0
  -27.6200   -6.4090  -32.5790 N   0  0  0  0  0  0  0  0  0  0  0  0
  -28.3760   -8.6670  -32.6700 N   0  0  0  0  0  0  0  0  0  0  0  0
  -27.9250   -5.2690  -31.7900 C   0  0  0  0  0  0  0  0  0  0  0  0
  -27.1620   -4.0280  -31.9790 C   0  0  0  0  0  0  0  0  0  0  0  0
  -26.1670   -4.0540  -32.9420 C   0  0  0  0  0  0  0  0  0  0  0  0
  -25.8383   -2.8168  -33.5015 N   0  0  0  0  0  0  0  0  0  0  0  0
  1  3  1  0
  1  2  2  3
  2  4  1  0
  4  5  1  0
  5  6  1  0
  6  7  2  0
M  END
>  <name>  (42) 
Car Nac Nd0 Car Car Car Nac

>  <indices>  (42) 
[0, 1, 2]

>  <dummy>  (42) 
2

>  <tasks>  (42) 
probe_placing close_aromatic_ring close_aromatic_ring close_aromatic_ring

>  <current_task>  (42) 
close_aromatic_ring

>  <prot_clashes>  (42) 
6

>  <NBS phar>  (42) 
0.12

>  <NBS_non-phar>  (42) 
0.5132619539896647

>  <NBS>  (42) 
0.6332619539896647

>  <source_stage>  (42) 
scored

>  <source_iter>  (42) 
3

>  <source_parent_mol>  (42) 
3

>  <source_scenario>  (42) 
1 0 3

>  <source_rank_in_scored_call>  (42) 
0

>  <source_current_task>  (42) 
close_aromatic_ring

>  <scenario>  (42) 
1 0 3

>  <rotatable_bond_torsions>  (42) 
0,1,3,4;1,3,4,5

>  <reason_to_skip>  (42) 
incorrect arom ring closing

$$$$

     RDKit          3D

  7  6  0  0  0  0  0  0  0  0999 V2000
  -28.4520   -7.3830  -32.1110 C   0  0  0  0  0  0  0  0  0  0  0  0
  -27.6200   -6.4090  -32.5790 N   0  0  0  0  0  0  0  0  0  0  0  0
  -28.3760   -8.6670  -32.6700 N   0  0  0  0  0  0  0  0  0  0  0  0
  -27.9250   -5.2690  -31.7900 C   0  0  0  0  0  0  0  0  0  0  0  0
  -27.1620   -4.0280  -31.9790 C   0  0  0  0  0  0  0  0  0  0  0  0
  -26.1670   -4.0540  -32.9420 C   0  0  0  0  0  0  0  0  0  0  0  0
    0.0000    0.0000    0.0000 O   0  0  0  0  0  0  0  0  0  0  0  0
  1  3  1  0
  1  2  2  3
  2  4  1  0
  4  5  1  0
  5  6  1  0
  6  7  1  0
M  END
>  <name>  (43) 
Car Nac Nd0 Car Car Car O_a

>  <indices>  (43) 
[0, 1, 2]

>  <dummy>  (43) 
2

>  <tasks>  (43) 
probe_placing close_aromatic_ring close_aromatic_ring close_aromatic_ring

>  <current_task>  (43) 
close_aromatic_ring

>  <prot_clashes>  (43) 
6

>  <NBS phar>  (43) 
0.12

>  <NBS_non-phar>  (43) 
0.5132619539896647

>  <NBS>  (43) 
0.6332619539896647

>  <source_stage>  (43) 
scored

>  <source_iter>  (43) 
3

>  <source_parent_mol>  (43) 
3

>  <source_scenario>  (43) 
1 0 3

>  <source_rank_in_scored_call>  (43) 
0

>  <source_current_task>  (43) 
close_aromatic_ring

>  <scenario>  (43) 
1 0 3

>  <rotatable_bond_torsions>  (43) 
0,1,3,4;1,3,4,5

>  <reason_to_skip>  (43) 
some_atom_counter_exceeded

$$$$

     RDKit          3D

  7  6  0  0  0  0  0  0  0  0999 V2000
  -28.4520   -7.3830  -32.1110 C   0  0  0  0  0  0  0  0  0  0  0  0
  -27.6200   -6.4090  -32.5790 N   0  0  0  0  0  0  0  0  0  0  0  0
  -28.3760   -8.6670  -32.6700 N   0  0  0  0  0  0  0  0  0  0  0  0
  -27.9250   -5.2690  -31.7900 C   0  0  0  0  0  0  0  0  0  0  0  0
  -27.1620   -4.0280  -31.9790 C   0  0  0  0  0  0  0  0  0  0  0  0
  -26.1670   -4.0540  -32.9420 C   0  0  0  0  0  0  0  0  0  0  0  0
    0.0000    0.0000    0.0000 O   0  0  0  0  0  0  0  0  0  0  0  0
  1  3  1  0
  1  2  2  3
  2  4  1  0
  4  5  1  0
  5  6  1  0
  6  7  1  0
M  END
>  <name>  (44) 
Car Nac Nd0 Car Car Car O_a

>  <indices>  (44) 
[0, 1, 2]

>  <dummy>  (44) 
2

>  <tasks>  (44) 
probe_placing close_aromatic_ring close_aromatic_ring close_aromatic_ring

>  <current_task>  (44) 
close_aromatic_ring

>  <prot_clashes>  (44) 
6

>  <NBS phar>  (44) 
0.12

>  <NBS_non-phar>  (44) 
0.5132619539896647

>  <NBS>  (44) 
0.6332619539896647

>  <source_stage>  (44) 
scored

>  <source_iter>  (44) 
3

>  <source_parent_mol>  (44) 
3

>  <source_scenario>  (44) 
1 0 3

>  <source_rank_in_scored_call>  (44) 
0

>  <source_current_task>  (44) 
close_aromatic_ring

>  <scenario>  (44) 
1 0 3

>  <rotatable_bond_torsions>  (44) 
0,1,3,4;1,3,4,5

>  <reason_to_skip>  (44) 
some_atom_counter_exceeded

$$$$

     RDKit          3D

  7  6  0  0  0  0  0  0  0  0999 V2000
  -28.4520   -7.3830  -32.1110 C   0  0  0  0  0  0  0  0  0  0  0  0
  -27.6200   -6.4090  -32.5790 N   0  0  0  0  0  0  0  0  0  0  0  0
  -28.3760   -8.6670  -32.6700 N   0  0  0  0  0  0  0  0  0  0  0  0
  -27.9250   -5.2690  -31.7900 C   0  0  0  0  0  0  0  0  0  0  0  0
  -27.1620   -4.0280  -31.9790 C   0  0  0  0  0  0  0  0  0  0  0  0
  -26.1670   -4.0540  -32.9420 C   0  0  0  0  0  0  0  0  0  0  0  0
  -24.4228   -3.6651  -32.8850 C   0  0  0  0  0  0  0  0  0  0  0  0
  1  3  1  0
  1  2  2  3
  2  4  1  0
  4  5  1  0
  5  6  1  0
  6  7  1  0
M  END
>  <name>  (45) 
Car Nac Nd0 Car Car Car Car

>  <indices>  (45) 
[0, 1, 2]

>  <dummy>  (45) 
2

>  <tasks>  (45) 
probe_placing close_aromatic_ring close_aromatic_ring close_aromatic_ring

>  <current_task>  (45) 
close_aromatic_ring

>  <prot_clashes>  (45) 
6

>  <NBS phar>  (45) 
0.12

>  <NBS_non-phar>  (45) 
0.5132619539896647

>  <NBS>  (45) 
0.6332619539896647

>  <source_stage>  (45) 
scored

>  <source_iter>  (45) 
3

>  <source_parent_mol>  (45) 
3

>  <source_scenario>  (45) 
1 0 3

>  <source_rank_in_scored_call>  (45) 
0

>  <source_current_task>  (45) 
close_aromatic_ring

>  <scenario>  (45) 
1 0 3

>  <rotatable_bond_torsions>  (45) 
0,1,3,4;1,3,4,5

>  <reason_to_skip>  (45) 
incorrect arom ring closing

$$$$

     RDKit          3D

  7  6  0  0  0  0  0  0  0  0999 V2000
  -28.4520   -7.3830  -32.1110 C   0  0  0  0  0  0  0  0  0  0  0  0
  -27.6200   -6.4090  -32.5790 N   0  0  0  0  0  0  0  0  0  0  0  0
  -28.3760   -8.6670  -32.6700 N   0  0  0  0  0  0  0  0  0  0  0  0
  -27.9250   -5.2690  -31.7900 C   0  0  0  0  0  0  0  0  0  0  0  0
  -27.1620   -4.0280  -31.9790 C   0  0  0  0  0  0  0  0  0  0  0  0
  -26.1670   -4.0540  -32.9420 C   0  0  0  0  0  0  0  0  0  0  0  0
    0.0000    0.0000    0.0000 S   0  0  0  0  0  0  0  0  0  0  0  0
  1  3  1  0
  1  2  2  3
  2  4  1  0
  4  5  1  0
  5  6  1  0
  6  7  1  0
M  END
>  <name>  (46) 
Car Nac Nd0 Car Car Car Sul

>  <indices>  (46) 
[0, 1, 2]

>  <dummy>  (46) 
2

>  <tasks>  (46) 
probe_placing close_aromatic_ring close_aromatic_ring close_aromatic_ring

>  <current_task>  (46) 
close_aromatic_ring

>  <prot_clashes>  (46) 
6

>  <NBS phar>  (46) 
0.12

>  <NBS_non-phar>  (46) 
0.5132619539896647

>  <NBS>  (46) 
0.6332619539896647

>  <source_stage>  (46) 
scored

>  <source_iter>  (46) 
3

>  <source_parent_mol>  (46) 
3

>  <source_scenario>  (46) 
1 0 3

>  <source_rank_in_scored_call>  (46) 
0

>  <source_current_task>  (46) 
close_aromatic_ring

>  <scenario>  (46) 
1 0 3

>  <rotatable_bond_torsions>  (46) 
0,1,3,4;1,3,4,5

>  <reason_to_skip>  (46) 
some_atom_counter_exceeded

$$$$

     RDKit          3D

  7  6  0  0  0  0  0  0  0  0999 V2000
  -28.4520   -7.3830  -32.1110 C   0  0  0  0  0  0  0  0  0  0  0  0
  -27.6200   -6.4090  -32.5790 N   0  0  0  0  0  0  0  0  0  0  0  0
  -28.3760   -8.6670  -32.6700 N   0  0  0  0  0  0  0  0  0  0  0  0
  -27.9250   -5.2690  -31.7900 C   0  0  0  0  0  0  0  0  0  0  0  0
  -27.1620   -4.0280  -31.9790 C   0  0  0  0  0  0  0  0  0  0  0  0
  -26.1670   -4.0540  -32.9420 C   0  0  0  0  0  0  0  0  0  0  0  0
  -26.6237   -3.4562  -34.1143 N   0  0  0  0  0  0  0  0  0  0  0  0
  1  3  1  0
  1  2  2  3
  2  4  1  0
  4  5  1  0
  5  6  1  0
  6  7  1  0
M  END
>  <name>  (47) 
Car Nac Nd0 Car Car Car Nd0

>  <indices>  (47) 
[0, 1, 2]

>  <dummy>  (47) 
2

>  <tasks>  (47) 
probe_placing close_aromatic_ring close_aromatic_ring close_aromatic_ring

>  <current_task>  (47) 
close_aromatic_ring

>  <prot_clashes>  (47) 
6

>  <NBS phar>  (47) 
0.12

>  <NBS_non-phar>  (47) 
0.5132619539896647

>  <NBS>  (47) 
0.6332619539896647

>  <source_stage>  (47) 
scored

>  <source_iter>  (47) 
3

>  <source_parent_mol>  (47) 
3

>  <source_scenario>  (47) 
1 0 3

>  <source_rank_in_scored_call>  (47) 
0

>  <source_current_task>  (47) 
close_aromatic_ring

>  <scenario>  (47) 
1 0 3

>  <rotatable_bond_torsions>  (47) 
0,1,3,4;1,3,4,5

>  <reason_to_skip>  (47) 
incorrect arom ring closing

$$$$

     RDKit          3D

  7  6  0  0  0  0  0  0  0  0999 V2000
  -28.4520   -7.3830  -32.1110 C   0  0  0  0  0  0  0  0  0  0  0  0
  -27.6200   -6.4090  -32.5790 N   0  0  0  0  0  0  0  0  0  0  0  0
  -28.3760   -8.6670  -32.6700 N   0  0  0  0  0  0  0  0  0  0  0  0
  -27.9250   -5.2690  -31.7900 C   0  0  0  0  0  0  0  0  0  0  0  0
  -27.1620   -4.0280  -31.9790 C   0  0  0  0  0  0  0  0  0  0  0  0
  -26.1670   -4.0540  -32.9420 C   0  0  0  0  0  0  0  0  0  0  0  0
    0.0000    0.0000    0.0000 S   0  0  0  0  0  0  0  0  0  0  0  0
  1  3  1  0
  1  2  2  3
  2  4  1  0
  4  5  1  0
  5  6  1  0
  6  7  1  0
M  END
>  <name>  (48) 
Car Nac Nd0 Car Car Car Sul

>  <indices>  (48) 
[0, 1, 2]

>  <dummy>  (48) 
2

>  <tasks>  (48) 
probe_placing close_aromatic_ring close_aromatic_ring close_aromatic_ring

>  <current_task>  (48) 
close_aromatic_ring

>  <prot_clashes>  (48) 
6

>  <NBS phar>  (48) 
0.12

>  <NBS_non-phar>  (48) 
0.5132619539896647

>  <NBS>  (48) 
0.6332619539896647

>  <source_stage>  (48) 
scored

>  <source_iter>  (48) 
3

>  <source_parent_mol>  (48) 
3

>  <source_scenario>  (48) 
1 0 3

>  <source_rank_in_scored_call>  (48) 
0

>  <source_current_task>  (48) 
close_aromatic_ring

>  <scenario>  (48) 
1 0 3

>  <rotatable_bond_torsions>  (48) 
0,1,3,4;1,3,4,5

>  <reason_to_skip>  (48) 
some_atom_counter_exceeded

$$$$

     RDKit          3D

  7  6  0  0  0  0  0  0  0  0999 V2000
  -28.4520   -7.3830  -32.1110 C   0  0  0  0  0  0  0  0  0  0  0  0
  -27.6200   -6.4090  -32.5790 N   0  0  0  0  0  0  0  0  0  0  0  0
  -28.3760   -8.6670  -32.6700 N   0  0  0  0  0  0  0  0  0  0  0  0
  -27.9250   -5.2690  -31.7900 C   0  0  0  0  0  0  0  0  0  0  0  0
  -27.1620   -4.0280  -31.9790 C   0  0  0  0  0  0  0  0  0  0  0  0
  -26.1670   -4.0540  -32.9420 C   0  0  0  0  0  0  0  0  0  0  0  0
    0.0000    0.0000    0.0000 S   0  0  0  0  0  0  0  0  0  0  0  0
  1  3  1  0
  1  2  2  3
  2  4  1  0
  4  5  1  0
  5  6  1  0
  6  7  1  0
M  END
>  <name>  (49) 
Car Nac Nd0 Car Car Car Sul

>  <indices>  (49) 
[0, 1, 2]

>  <dummy>  (49) 
2

>  <tasks>  (49) 
probe_placing close_aromatic_ring close_aromatic_ring close_aromatic_ring

>  <current_task>  (49) 
close_aromatic_ring

>  <prot_clashes>  (49) 
6

>  <NBS phar>  (49) 
0.12

>  <NBS_non-phar>  (49) 
0.5132619539896647

>  <NBS>  (49) 
0.6332619539896647

>  <source_stage>  (49) 
scored

>  <source_iter>  (49) 
3

>  <source_parent_mol>  (49) 
3

>  <source_scenario>  (49) 
1 0 3

>  <source_rank_in_scored_call>  (49) 
0

>  <source_current_task>  (49) 
close_aromatic_ring

>  <scenario>  (49) 
1 0 3

>  <rotatable_bond_torsions>  (49) 
0,1,3,4;1,3,4,5

>  <reason_to_skip>  (49) 
some_atom_counter_exceeded

$$$$

     RDKit          3D

  7  6  0  0  0  0  0  0  0  0999 V2000
  -28.4520   -7.3830  -32.1110 C   0  0  0  0  0  0  0  0  0  0  0  0
  -27.6200   -6.4090  -32.5790 N   0  0  0  0  0  0  0  0  0  0  0  0
  -28.3760   -8.6670  -32.6700 N   0  0  0  0  0  0  0  0  0  0  0  0
  -27.9250   -5.2690  -31.7900 C   0  0  0  0  0  0  0  0  0  0  0  0
  -27.1620   -4.0280  -31.9790 C   0  0  0  0  0  0  0  0  0  0  0  0
  -26.1670   -4.0540  -32.9420 C   0  0  0  0  0  0  0  0  0  0  0  0
    0.0000    0.0000    0.0000 S   0  0  0  0  0  0  0  0  0  0  0  0
  1  3  1  0
  1  2  2  3
  2  4  1  0
  4  5  1  0
  5  6  1  0
  6  7  1  0
M  END
>  <name>  (50) 
Car Nac Nd0 Car Car Car Sul

>  <indices>  (50) 
[0, 1, 2]

>  <dummy>  (50) 
2

>  <tasks>  (50) 
probe_placing close_aromatic_ring close_aromatic_ring close_aromatic_ring

>  <current_task>  (50) 
close_aromatic_ring

>  <prot_clashes>  (50) 
6

>  <NBS phar>  (50) 
0.12

>  <NBS_non-phar>  (50) 
0.5132619539896647

>  <NBS>  (50) 
0.6332619539896647

>  <source_stage>  (50) 
scored

>  <source_iter>  (50) 
3

>  <source_parent_mol>  (50) 
3

>  <source_scenario>  (50) 
1 0 3

>  <source_rank_in_scored_call>  (50) 
0

>  <source_current_task>  (50) 
close_aromatic_ring

>  <scenario>  (50) 
1 0 3

>  <rotatable_bond_torsions>  (50) 
0,1,3,4;1,3,4,5

>  <reason_to_skip>  (50) 
some_atom_counter_exceeded

$$$$

     RDKit          3D

  7  6  0  0  0  0  0  0  0  0999 V2000
  -28.4520   -7.3830  -32.1110 C   0  0  0  0  0  0  0  0  0  0  0  0
  -27.6200   -6.4090  -32.5790 N   0  0  0  0  0  0  0  0  0  0  0  0
  -28.3760   -8.6670  -32.6700 N   0  0  0  0  0  0  0  0  0  0  0  0
  -27.9250   -5.2690  -31.7900 C   0  0  0  0  0  0  0  0  0  0  0  0
  -27.1620   -4.0280  -31.9790 C   0  0  0  0  0  0  0  0  0  0  0  0
  -26.1670   -4.0540  -32.9420 C   0  0  0  0  0  0  0  0  0  0  0  0
  -24.7510   -3.9784  -32.7545 N   0  0  0  0  0  0  0  0  0  0  0  0
  1  3  1  0
  1  2  2  3
  2  4  1  0
  4  5  1  0
  5  6  1  0
  6  7  2  0
M  END
>  <name>  (51) 
Car Nac Nd0 Car Car Car Nac

>  <indices>  (51) 
[0, 1, 2]

>  <dummy>  (51) 
2

>  <tasks>  (51) 
probe_placing close_aromatic_ring close_aromatic_ring close_aromatic_ring

>  <current_task>  (51) 
close_aromatic_ring

>  <prot_clashes>  (51) 
6

>  <NBS phar>  (51) 
0.12

>  <NBS_non-phar>  (51) 
0.5132619539896647

>  <NBS>  (51) 
0.6332619539896647

>  <source_stage>  (51) 
scored

>  <source_iter>  (51) 
3

>  <source_parent_mol>  (51) 
3

>  <source_scenario>  (51) 
1 0 3

>  <source_rank_in_scored_call>  (51) 
0

>  <source_current_task>  (51) 
close_aromatic_ring

>  <scenario>  (51) 
1 0 3

>  <rotatable_bond_torsions>  (51) 
0,1,3,4;1,3,4,5

>  <reason_to_skip>  (51) 
incorrect arom ring closing

$$$$

     RDKit          3D

  7  6  0  0  0  0  0  0  0  0999 V2000
  -28.4520   -7.3830  -32.1110 C   0  0  0  0  0  0  0  0  0  0  0  0
  -27.6200   -6.4090  -32.5790 N   0  0  0  0  0  0  0  0  0  0  0  0
  -28.3760   -8.6670  -32.6700 N   0  0  0  0  0  0  0  0  0  0  0  0
  -27.9250   -5.2690  -31.7900 C   0  0  0  0  0  0  0  0  0  0  0  0
  -27.1620   -4.0280  -31.9790 C   0  0  0  0  0  0  0  0  0  0  0  0
  -26.1670   -4.0540  -32.9420 C   0  0  0  0  0  0  0  0  0  0  0  0
  -24.8052   -4.4212  -32.6348 C   0  0  0  0  0  0  0  0  0  0  0  0
  1  3  1  0
  1  2  2  3
  2  4  1  0
  4  5  1  0
  5  6  1  0
  6  7  1  0
M  END
>  <name>  (52) 
Car Nac Nd0 Car Car Car Car

>  <indices>  (52) 
[0, 1, 2]

>  <dummy>  (52) 
2

>  <tasks>  (52) 
probe_placing close_aromatic_ring close_aromatic_ring close_aromatic_ring

>  <current_task>  (52) 
close_aromatic_ring

>  <prot_clashes>  (52) 
6

>  <NBS phar>  (52) 
0.12

>  <NBS_non-phar>  (52) 
0.5132619539896647

>  <NBS>  (52) 
0.6332619539896647

>  <source_stage>  (52) 
scored

>  <source_iter>  (52) 
3

>  <source_parent_mol>  (52) 
3

>  <source_scenario>  (52) 
1 0 3

>  <source_rank_in_scored_call>  (52) 
0

>  <source_current_task>  (52) 
close_aromatic_ring

>  <scenario>  (52) 
1 0 3

>  <rotatable_bond_torsions>  (52) 
0,1,3,4;1,3,4,5

>  <reason_to_skip>  (52) 
incorrect arom ring closing

$$$$

     RDKit          3D

  7  6  0  0  0  0  0  0  0  0999 V2000
  -28.4520   -7.3830  -32.1110 C   0  0  0  0  0  0  0  0  0  0  0  0
  -27.6200   -6.4090  -32.5790 N   0  0  0  0  0  0  0  0  0  0  0  0
  -28.3760   -8.6670  -32.6700 N   0  0  0  0  0  0  0  0  0  0  0  0
  -27.9250   -5.2690  -31.7900 C   0  0  0  0  0  0  0  0  0  0  0  0
  -27.1620   -4.0280  -31.9790 C   0  0  0  0  0  0  0  0  0  0  0  0
  -26.1670   -4.0540  -32.9420 C   0  0  0  0  0  0  0  0  0  0  0  0
  -24.8448   -4.5858  -32.7530 C   0  0  0  0  0  0  0  0  0  0  0  0
  1  3  1  0
  1  2  2  3
  2  4  1  0
  4  5  1  0
  5  6  1  0
  6  7  1  0
M  END
>  <name>  (53) 
Car Nac Nd0 Car Car Car Car

>  <indices>  (53) 
[0, 1, 2]

>  <dummy>  (53) 
2

>  <tasks>  (53) 
probe_placing close_aromatic_ring close_aromatic_ring close_aromatic_ring

>  <current_task>  (53) 
close_aromatic_ring

>  <prot_clashes>  (53) 
6

>  <NBS phar>  (53) 
0.12

>  <NBS_non-phar>  (53) 
0.5132619539896647

>  <NBS>  (53) 
0.6332619539896647

>  <source_stage>  (53) 
scored

>  <source_iter>  (53) 
3

>  <source_parent_mol>  (53) 
3

>  <source_scenario>  (53) 
1 0 3

>  <source_rank_in_scored_call>  (53) 
0

>  <source_current_task>  (53) 
close_aromatic_ring

>  <scenario>  (53) 
1 0 3

>  <rotatable_bond_torsions>  (53) 
0,1,3,4;1,3,4,5

>  <reason_to_skip>  (53) 
incorrect arom ring closing

$$$$

     RDKit          3D

  7  6  0  0  0  0  0  0  0  0999 V2000
  -28.4520   -7.3830  -32.1110 C   0  0  0  0  0  0  0  0  0  0  0  0
  -27.6200   -6.4090  -32.5790 N   0  0  0  0  0  0  0  0  0  0  0  0
  -28.3760   -8.6670  -32.6700 N   0  0  0  0  0  0  0  0  0  0  0  0
  -27.9250   -5.2690  -31.7900 C   0  0  0  0  0  0  0  0  0  0  0  0
  -27.1620   -4.0280  -31.9790 C   0  0  0  0  0  0  0  0  0  0  0  0
  -26.1670   -4.0540  -32.9420 C   0  0  0  0  0  0  0  0  0  0  0  0
  -26.2409   -3.3822  -34.1880 N   0  0  0  0  0  0  0  0  0  0  0  0
  1  3  1  0
  1  2  2  3
  2  4  1  0
  4  5  1  0
  5  6  1  0
  6  7  1  0
M  END
>  <name>  (54) 
Car Nac Nd0 Car Car Car Nd0

>  <indices>  (54) 
[0, 1, 2]

>  <dummy>  (54) 
2

>  <tasks>  (54) 
probe_placing close_aromatic_ring close_aromatic_ring close_aromatic_ring

>  <current_task>  (54) 
close_aromatic_ring

>  <prot_clashes>  (54) 
6

>  <NBS phar>  (54) 
0.12

>  <NBS_non-phar>  (54) 
0.5132619539896647

>  <NBS>  (54) 
0.6332619539896647

>  <source_stage>  (54) 
scored

>  <source_iter>  (54) 
3

>  <source_parent_mol>  (54) 
3

>  <source_scenario>  (54) 
1 0 3

>  <source_rank_in_scored_call>  (54) 
0

>  <source_current_task>  (54) 
close_aromatic_ring

>  <scenario>  (54) 
1 0 3

>  <rotatable_bond_torsions>  (54) 
0,1,3,4;1,3,4,5

>  <reason_to_skip>  (54) 
incorrect arom ring closing

$$$$

     RDKit          3D

  7  6  0  0  0  0  0  0  0  0999 V2000
  -28.4520   -7.3830  -32.1110 C   0  0  0  0  0  0  0  0  0  0  0  0
  -27.6200   -6.4090  -32.5790 N   0  0  0  0  0  0  0  0  0  0  0  0
  -28.3760   -8.6670  -32.6700 N   0  0  0  0  0  0  0  0  0  0  0  0
  -27.9250   -5.2690  -31.7900 C   0  0  0  0  0  0  0  0  0  0  0  0
  -27.1620   -4.0280  -31.9790 C   0  0  0  0  0  0  0  0  0  0  0  0
  -26.1670   -4.0540  -32.9420 C   0  0  0  0  0  0  0  0  0  0  0  0
  -26.1370   -3.2822  -34.1409 N   0  0  0  0  0  0  0  0  0  0  0  0
  1  3  1  0
  1  2  2  3
  2  4  1  0
  4  5  1  0
  5  6  1  0
  6  7  1  0
M  END
>  <name>  (55) 
Car Nac Nd0 Car Car Car Nac

>  <indices>  (55) 
[0, 1, 2]

>  <dummy>  (55) 
2

>  <tasks>  (55) 
probe_placing close_aromatic_ring close_aromatic_ring close_aromatic_ring

>  <current_task>  (55) 
close_aromatic_ring

>  <prot_clashes>  (55) 
6

>  <NBS phar>  (55) 
0.12

>  <NBS_non-phar>  (55) 
0.5132619539896647

>  <NBS>  (55) 
0.6332619539896647

>  <source_stage>  (55) 
scored

>  <source_iter>  (55) 
3

>  <source_parent_mol>  (55) 
3

>  <source_scenario>  (55) 
1 0 3

>  <source_rank_in_scored_call>  (55) 
0

>  <source_current_task>  (55) 
close_aromatic_ring

>  <scenario>  (55) 
1 0 3

>  <rotatable_bond_torsions>  (55) 
0,1,3,4;1,3,4,5

>  <reason_to_skip>  (55) 
incorrect arom ring closing

$$$$

     RDKit          3D

  7  6  0  0  0  0  0  0  0  0999 V2000
  -28.4520   -7.3830  -32.1110 C   0  0  0  0  0  0  0  0  0  0  0  0
  -27.6200   -6.4090  -32.5790 N   0  0  0  0  0  0  0  0  0  0  0  0
  -28.3760   -8.6670  -32.6700 N   0  0  0  0  0  0  0  0  0  0  0  0
  -27.9250   -5.2690  -31.7900 C   0  0  0  0  0  0  0  0  0  0  0  0
  -27.1620   -4.0280  -31.9790 C   0  0  0  0  0  0  0  0  0  0  0  0
  -26.1670   -4.0540  -32.9420 C   0  0  0  0  0  0  0  0  0  0  0  0
    0.0000    0.0000    0.0000 S   0  0  0  0  0  0  0  0  0  0  0  0
  1  3  1  0
  1  2  2  3
  2  4  1  0
  4  5  1  0
  5  6  1  0
  6  7  1  0
M  END
>  <name>  (56) 
Car Nac Nd0 Car Car Car Sul

>  <indices>  (56) 
[0, 1, 2]

>  <dummy>  (56) 
2

>  <tasks>  (56) 
probe_placing close_aromatic_ring close_aromatic_ring close_aromatic_ring

>  <current_task>  (56) 
close_aromatic_ring

>  <prot_clashes>  (56) 
6

>  <NBS phar>  (56) 
0.12

>  <NBS_non-phar>  (56) 
0.5132619539896647

>  <NBS>  (56) 
0.6332619539896647

>  <source_stage>  (56) 
scored

>  <source_iter>  (56) 
3

>  <source_parent_mol>  (56) 
3

>  <source_scenario>  (56) 
1 0 3

>  <source_rank_in_scored_call>  (56) 
0

>  <source_current_task>  (56) 
close_aromatic_ring

>  <scenario>  (56) 
1 0 3

>  <rotatable_bond_torsions>  (56) 
0,1,3,4;1,3,4,5

>  <reason_to_skip>  (56) 
some_atom_counter_exceeded

$$$$

     RDKit          3D

  7  6  0  0  0  0  0  0  0  0999 V2000
  -28.4520   -7.3830  -32.1110 C   0  0  0  0  0  0  0  0  0  0  0  0
  -27.6200   -6.4090  -32.5790 N   0  0  0  0  0  0  0  0  0  0  0  0
  -28.3760   -8.6670  -32.6700 N   0  0  0  0  0  0  0  0  0  0  0  0
  -27.9250   -5.2690  -31.7900 C   0  0  0  0  0  0  0  0  0  0  0  0
  -27.1620   -4.0280  -31.9790 C   0  0  0  0  0  0  0  0  0  0  0  0
  -26.1670   -4.0540  -32.9420 C   0  0  0  0  0  0  0  0  0  0  0  0
    0.0000    0.0000    0.0000 S   0  0  0  0  0  0  0  0  0  0  0  0
  1  3  1  0
  1  2  2  3
  2  4  1  0
  4  5  1  0
  5  6  1  0
  6  7  1  0
M  END
>  <name>  (57) 
Car Nac Nd0 Car Car Car Sul

>  <indices>  (57) 
[0, 1, 2]

>  <dummy>  (57) 
2

>  <tasks>  (57) 
probe_placing close_aromatic_ring close_aromatic_ring close_aromatic_ring

>  <current_task>  (57) 
close_aromatic_ring

>  <prot_clashes>  (57) 
6

>  <NBS phar>  (57) 
0.12

>  <NBS_non-phar>  (57) 
0.5132619539896647

>  <NBS>  (57) 
0.6332619539896647

>  <source_stage>  (57) 
scored

>  <source_iter>  (57) 
3

>  <source_parent_mol>  (57) 
3

>  <source_scenario>  (57) 
1 0 3

>  <source_rank_in_scored_call>  (57) 
0

>  <source_current_task>  (57) 
close_aromatic_ring

>  <scenario>  (57) 
1 0 3

>  <rotatable_bond_torsions>  (57) 
0,1,3,4;1,3,4,5

>  <reason_to_skip>  (57) 
some_atom_counter_exceeded

$$$$

     RDKit          3D

  7  6  0  0  0  0  0  0  0  0999 V2000
  -28.4520   -7.3830  -32.1110 C   0  0  0  0  0  0  0  0  0  0  0  0
  -27.6200   -6.4090  -32.5790 N   0  0  0  0  0  0  0  0  0  0  0  0
  -28.3760   -8.6670  -32.6700 N   0  0  0  0  0  0  0  0  0  0  0  0
  -27.9250   -5.2690  -31.7900 C   0  0  0  0  0  0  0  0  0  0  0  0
  -27.1620   -4.0280  -31.9790 C   0  0  0  0  0  0  0  0  0  0  0  0
  -26.1670   -4.0540  -32.9420 C   0  0  0  0  0  0  0  0  0  0  0  0
  -24.9182   -3.9174  -32.5778 N   0  0  0  0  0  0  0  0  0  0  0  0
  1  3  1  0
  1  2  2  3
  2  4  1  0
  4  5  1  0
  5  6  1  0
  6  7  1  0
M  END
>  <name>  (58) 
Car Nac Nd0 Car Car Car Nd0

>  <indices>  (58) 
[0, 1, 2]

>  <dummy>  (58) 
2

>  <tasks>  (58) 
probe_placing close_aromatic_ring close_aromatic_ring close_aromatic_ring

>  <current_task>  (58) 
close_aromatic_ring

>  <prot_clashes>  (58) 
6

>  <NBS phar>  (58) 
0.12

>  <NBS_non-phar>  (58) 
0.5132619539896647

>  <NBS>  (58) 
0.6332619539896647

>  <source_stage>  (58) 
scored

>  <source_iter>  (58) 
3

>  <source_parent_mol>  (58) 
3

>  <source_scenario>  (58) 
1 0 3

>  <source_rank_in_scored_call>  (58) 
0

>  <source_current_task>  (58) 
close_aromatic_ring

>  <scenario>  (58) 
1 0 3

>  <rotatable_bond_torsions>  (58) 
0,1,3,4;1,3,4,5

>  <reason_to_skip>  (58) 
incorrect arom ring closing

$$$$

     RDKit          3D

  7  6  0  0  0  0  0  0  0  0999 V2000
  -28.4520   -7.3830  -32.1110 C   0  0  0  0  0  0  0  0  0  0  0  0
  -27.6200   -6.4090  -32.5790 N   0  0  0  0  0  0  0  0  0  0  0  0
  -28.3760   -8.6670  -32.6700 N   0  0  0  0  0  0  0  0  0  0  0  0
  -27.9250   -5.2690  -31.7900 C   0  0  0  0  0  0  0  0  0  0  0  0
  -27.1620   -4.0280  -31.9790 C   0  0  0  0  0  0  0  0  0  0  0  0
  -26.1670   -4.0540  -32.9420 C   0  0  0  0  0  0  0  0  0  0  0  0
    0.0000    0.0000    0.0000 O   0  0  0  0  0  0  0  0  0  0  0  0
  1  3  1  0
  1  2  2  3
  2  4  1  0
  4  5  1  0
  5  6  1  0
  6  7  1  0
M  END
>  <name>  (59) 
Car Nac Nd0 Car Car Car O_a

>  <indices>  (59) 
[0, 1, 2]

>  <dummy>  (59) 
2

>  <tasks>  (59) 
probe_placing close_aromatic_ring close_aromatic_ring close_aromatic_ring

>  <current_task>  (59) 
close_aromatic_ring

>  <prot_clashes>  (59) 
6

>  <NBS phar>  (59) 
0.12

>  <NBS_non-phar>  (59) 
0.5132619539896647

>  <NBS>  (59) 
0.6332619539896647

>  <source_stage>  (59) 
scored

>  <source_iter>  (59) 
3

>  <source_parent_mol>  (59) 
3

>  <source_scenario>  (59) 
1 0 3

>  <source_rank_in_scored_call>  (59) 
0

>  <source_current_task>  (59) 
close_aromatic_ring

>  <scenario>  (59) 
1 0 3

>  <rotatable_bond_torsions>  (59) 
0,1,3,4;1,3,4,5

>  <reason_to_skip>  (59) 
some_atom_counter_exceeded

$$$$

     RDKit          3D

  7  6  0  0  0  0  0  0  0  0999 V2000
  -28.4520   -7.3830  -32.1110 C   0  0  0  0  0  0  0  0  0  0  0  0
  -27.6200   -6.4090  -32.5790 N   0  0  0  0  0  0  0  0  0  0  0  0
  -28.3760   -8.6670  -32.6700 N   0  0  0  0  0  0  0  0  0  0  0  0
  -27.9250   -5.2690  -31.7900 C   0  0  0  0  0  0  0  0  0  0  0  0
  -27.1620   -4.0280  -31.9790 C   0  0  0  0  0  0  0  0  0  0  0  0
  -26.1670   -4.0540  -32.9420 C   0  0  0  0  0  0  0  0  0  0  0  0
    0.0000    0.0000    0.0000 O   0  0  0  0  0  0  0  0  0  0  0  0
  1  3  1  0
  1  2  2  3
  2  4  1  0
  4  5  1  0
  5  6  1  0
  6  7  1  0
M  END
>  <name>  (60) 
Car Nac Nd0 Car Car Car O_a

>  <indices>  (60) 
[0, 1, 2]

>  <dummy>  (60) 
2

>  <tasks>  (60) 
probe_placing close_aromatic_ring close_aromatic_ring close_aromatic_ring

>  <current_task>  (60) 
close_aromatic_ring

>  <prot_clashes>  (60) 
6

>  <NBS phar>  (60) 
0.12

>  <NBS_non-phar>  (60) 
0.5132619539896647

>  <NBS>  (60) 
0.6332619539896647

>  <source_stage>  (60) 
scored

>  <source_iter>  (60) 
3

>  <source_parent_mol>  (60) 
3

>  <source_scenario>  (60) 
1 0 3

>  <source_rank_in_scored_call>  (60) 
0

>  <source_current_task>  (60) 
close_aromatic_ring

>  <scenario>  (60) 
1 0 3

>  <rotatable_bond_torsions>  (60) 
0,1,3,4;1,3,4,5

>  <reason_to_skip>  (60) 
some_atom_counter_exceeded

$$$$

     RDKit          3D

  7  6  0  0  0  0  0  0  0  0999 V2000
  -28.4520   -7.3830  -32.1110 C   0  0  0  0  0  0  0  0  0  0  0  0
  -27.6200   -6.4090  -32.5790 N   0  0  0  0  0  0  0  0  0  0  0  0
  -28.3760   -8.6670  -32.6700 N   0  0  0  0  0  0  0  0  0  0  0  0
  -27.9250   -5.2690  -31.7900 C   0  0  0  0  0  0  0  0  0  0  0  0
  -27.1620   -4.0280  -31.9790 C   0  0  0  0  0  0  0  0  0  0  0  0
  -26.1670   -4.0540  -32.9420 C   0  0  0  0  0  0  0  0  0  0  0  0
  -24.7268   -3.9592  -32.5364 C   0  0  0  0  0  0  0  0  0  0  0  0
  1  3  1  0
  1  2  2  3
  2  4  1  0
  4  5  1  0
  5  6  1  0
  6  7  1  0
M  END
>  <name>  (61) 
Car Nac Nd0 Car Car Car Car

>  <indices>  (61) 
[0, 1, 2]

>  <dummy>  (61) 
2

>  <tasks>  (61) 
probe_placing close_aromatic_ring close_aromatic_ring close_aromatic_ring

>  <current_task>  (61) 
close_aromatic_ring

>  <prot_clashes>  (61) 
6

>  <NBS phar>  (61) 
0.12

>  <NBS_non-phar>  (61) 
0.5132619539896647

>  <NBS>  (61) 
0.6332619539896647

>  <source_stage>  (61) 
scored

>  <source_iter>  (61) 
3

>  <source_parent_mol>  (61) 
3

>  <source_scenario>  (61) 
1 0 3

>  <source_rank_in_scored_call>  (61) 
0

>  <source_current_task>  (61) 
close_aromatic_ring

>  <scenario>  (61) 
1 0 3

>  <rotatable_bond_torsions>  (61) 
0,1,3,4;1,3,4,5

>  <reason_to_skip>  (61) 
incorrect arom ring closing

$$$$

     RDKit          3D

  7  6  0  0  0  0  0  0  0  0999 V2000
  -28.4520   -7.3830  -32.1110 C   0  0  0  0  0  0  0  0  0  0  0  0
  -27.6200   -6.4090  -32.5790 N   0  0  0  0  0  0  0  0  0  0  0  0
  -28.3760   -8.6670  -32.6700 N   0  0  0  0  0  0  0  0  0  0  0  0
  -27.9250   -5.2690  -31.7900 C   0  0  0  0  0  0  0  0  0  0  0  0
  -27.1620   -4.0280  -31.9790 C   0  0  0  0  0  0  0  0  0  0  0  0
  -26.1670   -4.0540  -32.9420 C   0  0  0  0  0  0  0  0  0  0  0  0
  -26.2381   -3.9566  -34.3293 N   0  0  0  0  0  0  0  0  0  0  0  0
  1  3  1  0
  1  2  2  3
  2  4  1  0
  4  5  1  0
  5  6  1  0
  6  7  2  0
M  END
>  <name>  (62) 
Car Nac Nd0 Car Car Car Nac

>  <indices>  (62) 
[0, 1, 2]

>  <dummy>  (62) 
2

>  <tasks>  (62) 
probe_placing close_aromatic_ring close_aromatic_ring close_aromatic_ring

>  <current_task>  (62) 
close_aromatic_ring

>  <prot_clashes>  (62) 
6

>  <NBS phar>  (62) 
0.12

>  <NBS_non-phar>  (62) 
0.5132619539896647

>  <NBS>  (62) 
0.6332619539896647

>  <source_stage>  (62) 
scored

>  <source_iter>  (62) 
3

>  <source_parent_mol>  (62) 
3

>  <source_scenario>  (62) 
1 0 3

>  <source_rank_in_scored_call>  (62) 
0

>  <source_current_task>  (62) 
close_aromatic_ring

>  <scenario>  (62) 
1 0 3

>  <rotatable_bond_torsions>  (62) 
0,1,3,4;1,3,4,5

>  <reason_to_skip>  (62) 
incorrect arom ring closing

$$$$

     RDKit          3D

  7  6  0  0  0  0  0  0  0  0999 V2000
  -28.4520   -7.3830  -32.1110 C   0  0  0  0  0  0  0  0  0  0  0  0
  -27.6200   -6.4090  -32.5790 N   0  0  0  0  0  0  0  0  0  0  0  0
  -28.3760   -8.6670  -32.6700 N   0  0  0  0  0  0  0  0  0  0  0  0
  -27.9250   -5.2690  -31.7900 C   0  0  0  0  0  0  0  0  0  0  0  0
  -27.1620   -4.0280  -31.9790 C   0  0  0  0  0  0  0  0  0  0  0  0
  -26.1670   -4.0540  -32.9420 C   0  0  0  0  0  0  0  0  0  0  0  0
    0.0000    0.0000    0.0000 S   0  0  0  0  0  0  0  0  0  0  0  0
  1  3  1  0
  1  2  2  3
  2  4  1  0
  4  5  1  0
  5  6  1  0
  6  7  1  0
M  END
>  <name>  (63) 
Car Nac Nd0 Car Car Car Sul

>  <indices>  (63) 
[0, 1, 2]

>  <dummy>  (63) 
2

>  <tasks>  (63) 
probe_placing close_aromatic_ring close_aromatic_ring close_aromatic_ring

>  <current_task>  (63) 
close_aromatic_ring

>  <prot_clashes>  (63) 
6

>  <NBS phar>  (63) 
0.12

>  <NBS_non-phar>  (63) 
0.5132619539896647

>  <NBS>  (63) 
0.6332619539896647

>  <source_stage>  (63) 
scored

>  <source_iter>  (63) 
3

>  <source_parent_mol>  (63) 
3

>  <source_scenario>  (63) 
1 0 3

>  <source_rank_in_scored_call>  (63) 
0

>  <source_current_task>  (63) 
close_aromatic_ring

>  <scenario>  (63) 
1 0 3

>  <rotatable_bond_torsions>  (63) 
0,1,3,4;1,3,4,5

>  <reason_to_skip>  (63) 
some_atom_counter_exceeded

$$$$

     RDKit          3D

  7  6  0  0  0  0  0  0  0  0999 V2000
  -28.4520   -7.3830  -32.1110 C   0  0  0  0  0  0  0  0  0  0  0  0
  -27.6200   -6.4090  -32.5790 N   0  0  0  0  0  0  0  0  0  0  0  0
  -28.3760   -8.6670  -32.6700 N   0  0  0  0  0  0  0  0  0  0  0  0
  -27.9250   -5.2690  -31.7900 C   0  0  0  0  0  0  0  0  0  0  0  0
  -27.1620   -4.0280  -31.9790 C   0  0  0  0  0  0  0  0  0  0  0  0
  -26.1670   -4.0540  -32.9420 C   0  0  0  0  0  0  0  0  0  0  0  0
  -26.3503   -2.9164  -33.9380 C   0  0  0  0  0  0  0  0  0  0  0  0
  1  3  1  0
  1  2  2  3
  2  4  1  0
  4  5  1  0
  5  6  1  0
  6  7  1  0
M  END
>  <name>  (64) 
Car Nac Nd0 Car Car Car Car

>  <indices>  (64) 
[0, 1, 2]

>  <dummy>  (64) 
2

>  <tasks>  (64) 
probe_placing close_aromatic_ring close_aromatic_ring close_aromatic_ring

>  <current_task>  (64) 
close_aromatic_ring

>  <prot_clashes>  (64) 
6

>  <NBS phar>  (64) 
0.12

>  <NBS_non-phar>  (64) 
0.5132619539896647

>  <NBS>  (64) 
0.6332619539896647

>  <source_stage>  (64) 
scored

>  <source_iter>  (64) 
3

>  <source_parent_mol>  (64) 
3

>  <source_scenario>  (64) 
1 0 3

>  <source_rank_in_scored_call>  (64) 
0

>  <source_current_task>  (64) 
close_aromatic_ring

>  <scenario>  (64) 
1 0 3

>  <rotatable_bond_torsions>  (64) 
0,1,3,4;1,3,4,5

>  <reason_to_skip>  (64) 
incorrect arom ring closing

$$$$

     RDKit          3D

  7  6  0  0  0  0  0  0  0  0999 V2000
  -28.4520   -7.3830  -32.1110 C   0  0  0  0  0  0  0  0  0  0  0  0
  -27.6200   -6.4090  -32.5790 N   0  0  0  0  0  0  0  0  0  0  0  0
  -28.3760   -8.6670  -32.6700 N   0  0  0  0  0  0  0  0  0  0  0  0
  -27.9250   -5.2690  -31.7900 C   0  0  0  0  0  0  0  0  0  0  0  0
  -27.1620   -4.0280  -31.9790 C   0  0  0  0  0  0  0  0  0  0  0  0
  -26.1670   -4.0540  -32.9420 C   0  0  0  0  0  0  0  0  0  0  0  0
    0.0000    0.0000    0.0000 S   0  0  0  0  0  0  0  0  0  0  0  0
  1  3  1  0
  1  2  2  3
  2  4  1  0
  4  5  1  0
  5  6  1  0
  6  7  1  0
M  END
>  <name>  (65) 
Car Nac Nd0 Car Car Car Sul

>  <indices>  (65) 
[0, 1, 2]

>  <dummy>  (65) 
2

>  <tasks>  (65) 
probe_placing close_aromatic_ring close_aromatic_ring close_aromatic_ring

>  <current_task>  (65) 
close_aromatic_ring

>  <prot_clashes>  (65) 
6

>  <NBS phar>  (65) 
0.12

>  <NBS_non-phar>  (65) 
0.5132619539896647

>  <NBS>  (65) 
0.6332619539896647

>  <source_stage>  (65) 
scored

>  <source_iter>  (65) 
3

>  <source_parent_mol>  (65) 
3

>  <source_scenario>  (65) 
1 0 3

>  <source_rank_in_scored_call>  (65) 
0

>  <source_current_task>  (65) 
close_aromatic_ring

>  <scenario>  (65) 
1 0 3

>  <rotatable_bond_torsions>  (65) 
0,1,3,4;1,3,4,5

>  <reason_to_skip>  (65) 
some_atom_counter_exceeded

$$$$

     RDKit          3D

  7  6  0  0  0  0  0  0  0  0999 V2000
  -28.4520   -7.3830  -32.1110 C   0  0  0  0  0  0  0  0  0  0  0  0
  -27.6200   -6.4090  -32.5790 N   0  0  0  0  0  0  0  0  0  0  0  0
  -28.3760   -8.6670  -32.6700 N   0  0  0  0  0  0  0  0  0  0  0  0
  -27.9250   -5.2690  -31.7900 C   0  0  0  0  0  0  0  0  0  0  0  0
  -27.1620   -4.0280  -31.9790 C   0  0  0  0  0  0  0  0  0  0  0  0
  -26.1670   -4.0540  -32.9420 C   0  0  0  0  0  0  0  0  0  0  0  0
  -24.8661   -4.6009  -32.8425 N   0  0  0  0  0  0  0  0  0  0  0  0
  1  3  1  0
  1  2  2  3
  2  4  1  0
  4  5  1  0
  5  6  1  0
  6  7  2  0
M  END
>  <name>  (66) 
Car Nac Nd0 Car Car Car Nac

>  <indices>  (66) 
[0, 1, 2]

>  <dummy>  (66) 
2

>  <tasks>  (66) 
probe_placing close_aromatic_ring close_aromatic_ring close_aromatic_ring

>  <current_task>  (66) 
close_aromatic_ring

>  <prot_clashes>  (66) 
6

>  <NBS phar>  (66) 
0.12

>  <NBS_non-phar>  (66) 
0.5132619539896647

>  <NBS>  (66) 
0.6332619539896647

>  <source_stage>  (66) 
scored

>  <source_iter>  (66) 
3

>  <source_parent_mol>  (66) 
3

>  <source_scenario>  (66) 
1 0 3

>  <source_rank_in_scored_call>  (66) 
0

>  <source_current_task>  (66) 
close_aromatic_ring

>  <scenario>  (66) 
1 0 3

>  <rotatable_bond_torsions>  (66) 
0,1,3,4;1,3,4,5

>  <reason_to_skip>  (66) 
incorrect arom ring closing

$$$$

     RDKit          3D

  7  6  0  0  0  0  0  0  0  0999 V2000
  -28.4520   -7.3830  -32.1110 C   0  0  0  0  0  0  0  0  0  0  0  0
  -27.6200   -6.4090  -32.5790 N   0  0  0  0  0  0  0  0  0  0  0  0
  -28.3760   -8.6670  -32.6700 N   0  0  0  0  0  0  0  0  0  0  0  0
  -27.9250   -5.2690  -31.7900 C   0  0  0  0  0  0  0  0  0  0  0  0
  -27.1620   -4.0280  -31.9790 C   0  0  0  0  0  0  0  0  0  0  0  0
  -26.1670   -4.0540  -32.9420 C   0  0  0  0  0  0  0  0  0  0  0  0
    0.0000    0.0000    0.0000 O   0  0  0  0  0  0  0  0  0  0  0  0
  1  3  1  0
  1  2  2  3
  2  4  1  0
  4  5  1  0
  5  6  1  0
  6  7  1  0
M  END
>  <name>  (67) 
Car Nac Nd0 Car Car Car O_a

>  <indices>  (67) 
[0, 1, 2]

>  <dummy>  (67) 
2

>  <tasks>  (67) 
probe_placing close_aromatic_ring close_aromatic_ring close_aromatic_ring

>  <current_task>  (67) 
close_aromatic_ring

>  <prot_clashes>  (67) 
6

>  <NBS phar>  (67) 
0.12

>  <NBS_non-phar>  (67) 
0.5132619539896647

>  <NBS>  (67) 
0.6332619539896647

>  <source_stage>  (67) 
scored

>  <source_iter>  (67) 
3

>  <source_parent_mol>  (67) 
3

>  <source_scenario>  (67) 
1 0 3

>  <source_rank_in_scored_call>  (67) 
0

>  <source_current_task>  (67) 
close_aromatic_ring

>  <scenario>  (67) 
1 0 3

>  <rotatable_bond_torsions>  (67) 
0,1,3,4;1,3,4,5

>  <reason_to_skip>  (67) 
some_atom_counter_exceeded

$$$$

     RDKit          3D

  7  6  0  0  0  0  0  0  0  0999 V2000
  -28.4520   -7.3830  -32.1110 C   0  0  0  0  0  0  0  0  0  0  0  0
  -27.6200   -6.4090  -32.5790 N   0  0  0  0  0  0  0  0  0  0  0  0
  -28.3760   -8.6670  -32.6700 N   0  0  0  0  0  0  0  0  0  0  0  0
  -27.9250   -5.2690  -31.7900 C   0  0  0  0  0  0  0  0  0  0  0  0
  -27.1620   -4.0280  -31.9790 C   0  0  0  0  0  0  0  0  0  0  0  0
  -26.1670   -4.0540  -32.9420 C   0  0  0  0  0  0  0  0  0  0  0  0
  -24.8837   -3.8185  -32.6565 N   0  0  0  0  0  0  0  0  0  0  0  0
  1  3  1  0
  1  2  2  3
  2  4  1  0
  4  5  1  0
  5  6  1  0
  6  7  1  0
M  END
>  <name>  (68) 
Car Nac Nd0 Car Car Car Nd0

>  <indices>  (68) 
[0, 1, 2]

>  <dummy>  (68) 
2

>  <tasks>  (68) 
probe_placing close_aromatic_ring close_aromatic_ring close_aromatic_ring

>  <current_task>  (68) 
close_aromatic_ring

>  <prot_clashes>  (68) 
6

>  <NBS phar>  (68) 
0.12

>  <NBS_non-phar>  (68) 
0.5132619539896647

>  <NBS>  (68) 
0.6332619539896647

>  <source_stage>  (68) 
scored

>  <source_iter>  (68) 
3

>  <source_parent_mol>  (68) 
3

>  <source_scenario>  (68) 
1 0 3

>  <source_rank_in_scored_call>  (68) 
0

>  <source_current_task>  (68) 
close_aromatic_ring

>  <scenario>  (68) 
1 0 3

>  <rotatable_bond_torsions>  (68) 
0,1,3,4;1,3,4,5

>  <reason_to_skip>  (68) 
incorrect arom ring closing

$$$$

     RDKit          3D

  7  6  0  0  0  0  0  0  0  0999 V2000
  -28.4520   -7.3830  -32.1110 C   0  0  0  0  0  0  0  0  0  0  0  0
  -27.6200   -6.4090  -32.5790 N   0  0  0  0  0  0  0  0  0  0  0  0
  -28.3760   -8.6670  -32.6700 N   0  0  0  0  0  0  0  0  0  0  0  0
  -27.9250   -5.2690  -31.7900 C   0  0  0  0  0  0  0  0  0  0  0  0
  -27.1620   -4.0280  -31.9790 C   0  0  0  0  0  0  0  0  0  0  0  0
  -26.1670   -4.0540  -32.9420 C   0  0  0  0  0  0  0  0  0  0  0  0
    0.0000    0.0000    0.0000 S   0  0  0  0  0  0  0  0  0  0  0  0
  1  3  1  0
  1  2  2  3
  2  4  1  0
  4  5  1  0
  5  6  1  0
  6  7  1  0
M  END
>  <name>  (69) 
Car Nac Nd0 Car Car Car Sul

>  <indices>  (69) 
[0, 1, 2]

>  <dummy>  (69) 
2

>  <tasks>  (69) 
probe_placing close_aromatic_ring close_aromatic_ring close_aromatic_ring

>  <current_task>  (69) 
close_aromatic_ring

>  <prot_clashes>  (69) 
6

>  <NBS phar>  (69) 
0.12

>  <NBS_non-phar>  (69) 
0.5132619539896647

>  <NBS>  (69) 
0.6332619539896647

>  <source_stage>  (69) 
scored

>  <source_iter>  (69) 
3

>  <source_parent_mol>  (69) 
3

>  <source_scenario>  (69) 
1 0 3

>  <source_rank_in_scored_call>  (69) 
0

>  <source_current_task>  (69) 
close_aromatic_ring

>  <scenario>  (69) 
1 0 3

>  <rotatable_bond_torsions>  (69) 
0,1,3,4;1,3,4,5

>  <reason_to_skip>  (69) 
some_atom_counter_exceeded

$$$$

     RDKit          3D

  7  6  0  0  0  0  0  0  0  0999 V2000
  -28.4520   -7.3830  -32.1110 C   0  0  0  0  0  0  0  0  0  0  0  0
  -27.6200   -6.4090  -32.5790 N   0  0  0  0  0  0  0  0  0  0  0  0
  -28.3760   -8.6670  -32.6700 N   0  0  0  0  0  0  0  0  0  0  0  0
  -27.9250   -5.2690  -31.7900 C   0  0  0  0  0  0  0  0  0  0  0  0
  -27.1620   -4.0280  -31.9790 C   0  0  0  0  0  0  0  0  0  0  0  0
  -26.1670   -4.0540  -32.9420 C   0  0  0  0  0  0  0  0  0  0  0  0
  -24.8002   -4.2632  -32.2712 N   0  0  0  0  0  0  0  0  0  0  0  0
  1  3  1  0
  1  2  2  3
  2  4  1  0
  4  5  1  0
  5  6  1  0
  6  7  1  0
M  END
>  <name>  (70) 
Car Nac Nd0 Car Car Car Nd0

>  <indices>  (70) 
[0, 1, 2]

>  <dummy>  (70) 
2

>  <tasks>  (70) 
probe_placing close_aromatic_ring close_aromatic_ring close_aromatic_ring

>  <current_task>  (70) 
close_aromatic_ring

>  <prot_clashes>  (70) 
6

>  <NBS phar>  (70) 
0.12

>  <NBS_non-phar>  (70) 
0.5132619539896647

>  <NBS>  (70) 
0.6332619539896647

>  <source_stage>  (70) 
scored

>  <source_iter>  (70) 
3

>  <source_parent_mol>  (70) 
3

>  <source_scenario>  (70) 
1 0 3

>  <source_rank_in_scored_call>  (70) 
0

>  <source_current_task>  (70) 
close_aromatic_ring

>  <scenario>  (70) 
1 0 3

>  <rotatable_bond_torsions>  (70) 
0,1,3,4;1,3,4,5

>  <reason_to_skip>  (70) 
incorrect arom ring closing

$$$$

     RDKit          3D

  7  6  0  0  0  0  0  0  0  0999 V2000
  -28.4520   -7.3830  -32.1110 C   0  0  0  0  0  0  0  0  0  0  0  0
  -27.6200   -6.4090  -32.5790 N   0  0  0  0  0  0  0  0  0  0  0  0
  -28.3760   -8.6670  -32.6700 N   0  0  0  0  0  0  0  0  0  0  0  0
  -27.9250   -5.2690  -31.7900 C   0  0  0  0  0  0  0  0  0  0  0  0
  -27.1620   -4.0280  -31.9790 C   0  0  0  0  0  0  0  0  0  0  0  0
  -26.1670   -4.0540  -32.9420 C   0  0  0  0  0  0  0  0  0  0  0  0
    0.0000    0.0000    0.0000 O   0  0  0  0  0  0  0  0  0  0  0  0
  1  3  1  0
  1  2  2  3
  2  4  1  0
  4  5  1  0
  5  6  1  0
  6  7  1  0
M  END
>  <name>  (71) 
Car Nac Nd0 Car Car Car O_a

>  <indices>  (71) 
[0, 1, 2]

>  <dummy>  (71) 
2

>  <tasks>  (71) 
probe_placing close_aromatic_ring close_aromatic_ring close_aromatic_ring

>  <current_task>  (71) 
close_aromatic_ring

>  <prot_clashes>  (71) 
6

>  <NBS phar>  (71) 
0.12

>  <NBS_non-phar>  (71) 
0.5132619539896647

>  <NBS>  (71) 
0.6332619539896647

>  <source_stage>  (71) 
scored

>  <source_iter>  (71) 
3

>  <source_parent_mol>  (71) 
3

>  <source_scenario>  (71) 
1 0 3

>  <source_rank_in_scored_call>  (71) 
0

>  <source_current_task>  (71) 
close_aromatic_ring

>  <scenario>  (71) 
1 0 3

>  <rotatable_bond_torsions>  (71) 
0,1,3,4;1,3,4,5

>  <reason_to_skip>  (71) 
some_atom_counter_exceeded

$$$$

     RDKit          3D

  7  6  0  0  0  0  0  0  0  0999 V2000
  -28.4520   -7.3830  -32.1110 C   0  0  0  0  0  0  0  0  0  0  0  0
  -27.6200   -6.4090  -32.5790 N   0  0  0  0  0  0  0  0  0  0  0  0
  -28.3760   -8.6670  -32.6700 N   0  0  0  0  0  0  0  0  0  0  0  0
  -27.9250   -5.2690  -31.7900 C   0  0  0  0  0  0  0  0  0  0  0  0
  -27.1620   -4.0280  -31.9790 C   0  0  0  0  0  0  0  0  0  0  0  0
  -26.1670   -4.0540  -32.9420 C   0  0  0  0  0  0  0  0  0  0  0  0
    0.0000    0.0000    0.0000 O   0  0  0  0  0  0  0  0  0  0  0  0
  1  3  1  0
  1  2  2  3
  2  4  1  0
  4  5  1  0
  5  6  1  0
  6  7  1  0
M  END
>  <name>  (72) 
Car Nac Nd0 Car Car Car O_a

>  <indices>  (72) 
[0, 1, 2]

>  <dummy>  (72) 
2

>  <tasks>  (72) 
probe_placing close_aromatic_ring close_aromatic_ring close_aromatic_ring

>  <current_task>  (72) 
close_aromatic_ring

>  <prot_clashes>  (72) 
6

>  <NBS phar>  (72) 
0.12

>  <NBS_non-phar>  (72) 
0.5132619539896647

>  <NBS>  (72) 
0.6332619539896647

>  <source_stage>  (72) 
scored

>  <source_iter>  (72) 
3

>  <source_parent_mol>  (72) 
3

>  <source_scenario>  (72) 
1 0 3

>  <source_rank_in_scored_call>  (72) 
0

>  <source_current_task>  (72) 
close_aromatic_ring

>  <scenario>  (72) 
1 0 3

>  <rotatable_bond_torsions>  (72) 
0,1,3,4;1,3,4,5

>  <reason_to_skip>  (72) 
some_atom_counter_exceeded

$$$$

     RDKit          3D

  7  6  0  0  0  0  0  0  0  0999 V2000
  -28.4520   -7.3830  -32.1110 C   0  0  0  0  0  0  0  0  0  0  0  0
  -27.6200   -6.4090  -32.5790 N   0  0  0  0  0  0  0  0  0  0  0  0
  -28.3760   -8.6670  -32.6700 N   0  0  0  0  0  0  0  0  0  0  0  0
  -27.9250   -5.2690  -31.7900 C   0  0  0  0  0  0  0  0  0  0  0  0
  -27.1620   -4.0280  -31.9790 C   0  0  0  0  0  0  0  0  0  0  0  0
  -26.1670   -4.0540  -32.9420 C   0  0  0  0  0  0  0  0  0  0  0  0
  -25.7816   -5.2351  -33.7665 C   0  0  0  0  0  0  0  0  0  0  0  0
  1  3  1  0
  1  2  2  3
  2  4  1  0
  4  5  1  0
  5  6  1  0
  6  7  2  0
M  END
>  <name>  (73) 
Car Nac Nd0 Car Car Car Car

>  <indices>  (73) 
[0, 1, 2]

>  <dummy>  (73) 
2

>  <tasks>  (73) 
probe_placing close_aromatic_ring close_aromatic_ring close_aromatic_ring

>  <current_task>  (73) 
close_aromatic_ring

>  <prot_clashes>  (73) 
6

>  <NBS phar>  (73) 
0.12

>  <NBS_non-phar>  (73) 
0.5132619539896647

>  <NBS>  (73) 
0.6332619539896647

>  <source_stage>  (73) 
scored

>  <source_iter>  (73) 
3

>  <source_parent_mol>  (73) 
3

>  <source_scenario>  (73) 
1 0 3

>  <source_rank_in_scored_call>  (73) 
0

>  <source_current_task>  (73) 
close_aromatic_ring

>  <scenario>  (73) 
1 0 3

>  <rotatable_bond_torsions>  (73) 
0,1,3,4;1,3,4,5

>  <reason_to_skip>  (73) 
subgraph mismatch

$$$$

     RDKit          3D

  7  6  0  0  0  0  0  0  0  0999 V2000
  -28.5750   -7.4640  -32.1890 C   0  0  0  0  0  0  0  0  0  0  0  0
  -27.7510   -6.4440  -32.5620 N   0  0  0  0  0  0  0  0  0  0  0  0
  -28.4250   -8.7170  -32.8010 N   0  0  0  0  0  0  0  0  0  0  0  0
  -28.1390   -5.3530  -31.7400 C   0  0  0  0  0  0  0  0  0  0  0  0
  -27.4090   -4.0810  -31.8270 C   0  0  0  0  0  0  0  0  0  0  0  0
  -26.3540   -4.0060  -32.7060 C   0  0  0  0  0  0  0  0  0  0  0  0
  -25.6349   -2.7085  -32.8844 N   0  0  0  0  0  0  0  0  0  0  0  0
  1  3  1  0
  1  2  2  3
  2  4  1  0
  4  5  1  0
  5  6  2  3
  6  7  1  0
M  END
>  <name>  (1) 
Car Nac Nd0 Car Car Car Nd0

>  <indices>  (1) 
[0, 1, 2]

>  <dummy>  (1) 
2

>  <tasks>  (1) 
probe_placing close_aromatic_ring close_aromatic_ring close_aromatic_ring

>  <current_task>  (1) 
close_aromatic_ring

>  <prot_clashes>  (1) 
5

>  <NBS phar>  (1) 
0.12

>  <NBS_non-phar>  (1) 
0.4729970296223958

>  <NBS>  (1) 
0.5929970296223959

>  <source_stage>  (1) 
scored

>  <source_iter>  (1) 
3

>  <source_parent_mol>  (1) 
3

>  <source_scenario>  (1) 
1 0 3

>  <source_rank_in_scored_call>  (1) 
1

>  <source_current_task>  (1) 
close_aromatic_ring

>  <scenario>  (1) 
1 0 3

>  <rotatable_bond_torsions>  (1) 
0,1,3,4;1,3,4,5

>  <reason_to_skip>  (1) 
incorrect arom ring closing

$$$$

     RDKit          3D

  7  6  0  0  0  0  0  0  0  0999 V2000
  -28.5750   -7.4640  -32.1890 C   0  0  0  0  0  0  0  0  0  0  0  0
  -27.7510   -6.4440  -32.5620 N   0  0  0  0  0  0  0  0  0  0  0  0
  -28.4250   -8.7170  -32.8010 N   0  0  0  0  0  0  0  0  0  0  0  0
  -28.1390   -5.3530  -31.7400 C   0  0  0  0  0  0  0  0  0  0  0  0
  -27.4090   -4.0810  -31.8270 C   0  0  0  0  0  0  0  0  0  0  0  0
  -26.3540   -4.0060  -32.7060 C   0  0  0  0  0  0  0  0  0  0  0  0
  -25.5184   -2.7726  -32.7836 N   0  0  0  0  0  0  0  0  0  0  0  0
  1  3  1  0
  1  2  2  3
  2  4  1  0
  4  5  1  0
  5  6  2  3
  6  7  1  0
M  END
>  <name>  (2) 
Car Nac Nd0 Car Car Car Nd0

>  <indices>  (2) 
[0, 1, 2]

>  <dummy>  (2) 
2

>  <tasks>  (2) 
probe_placing close_aromatic_ring close_aromatic_ring close_aromatic_ring

>  <current_task>  (2) 
close_aromatic_ring

>  <prot_clashes>  (2) 
5

>  <NBS phar>  (2) 
0.12

>  <NBS_non-phar>  (2) 
0.4729970296223958

>  <NBS>  (2) 
0.5929970296223959

>  <source_stage>  (2) 
scored

>  <source_iter>  (2) 
3

>  <source_parent_mol>  (2) 
3

>  <source_scenario>  (2) 
1 0 3

>  <source_rank_in_scored_call>  (2) 
1

>  <source_current_task>  (2) 
close_aromatic_ring

>  <scenario>  (2) 
1 0 3

>  <rotatable_bond_torsions>  (2) 
0,1,3,4;1,3,4,5

>  <reason_to_skip>  (2) 
incorrect arom ring closing

$$$$

     RDKit          3D

  7  6  0  0  0  0  0  0  0  0999 V2000
  -28.5750   -7.4640  -32.1890 C   0  0  0  0  0  0  0  0  0  0  0  0
  -27.7510   -6.4440  -32.5620 N   0  0  0  0  0  0  0  0  0  0  0  0
  -28.4250   -8.7170  -32.8010 N   0  0  0  0  0  0  0  0  0  0  0  0
  -28.1390   -5.3530  -31.7400 C   0  0  0  0  0  0  0  0  0  0  0  0
  -27.4090   -4.0810  -31.8270 C   0  0  0  0  0  0  0  0  0  0  0  0
  -26.3540   -4.0060  -32.7060 C   0  0  0  0  0  0  0  0  0  0  0  0
  -25.6992   -2.8215  -32.7717 N   0  0  0  0  0  0  0  0  0  0  0  0
  1  3  1  0
  1  2  2  3
  2  4  1  0
  4  5  1  0
  5  6  2  3
  6  7  1  0
M  END
>  <name>  (3) 
Car Nac Nd0 Car Car Car Nac

>  <indices>  (3) 
[0, 1, 2]

>  <dummy>  (3) 
2

>  <tasks>  (3) 
probe_placing close_aromatic_ring close_aromatic_ring close_aromatic_ring

>  <current_task>  (3) 
close_aromatic_ring

>  <prot_clashes>  (3) 
5

>  <NBS phar>  (3) 
0.12

>  <NBS_non-phar>  (3) 
0.4729970296223958

>  <NBS>  (3) 
0.5929970296223959

>  <source_stage>  (3) 
scored

>  <source_iter>  (3) 
3

>  <source_parent_mol>  (3) 
3

>  <source_scenario>  (3) 
1 0 3

>  <source_rank_in_scored_call>  (3) 
1

>  <source_current_task>  (3) 
close_aromatic_ring

>  <scenario>  (3) 
1 0 3

>  <rotatable_bond_torsions>  (3) 
0,1,3,4;1,3,4,5

>  <reason_to_skip>  (3) 
incorrect arom ring closing

$$$$

     RDKit          3D

  7  6  0  0  0  0  0  0  0  0999 V2000
  -28.5750   -7.4640  -32.1890 C   0  0  0  0  0  0  0  0  0  0  0  0
  -27.7510   -6.4440  -32.5620 N   0  0  0  0  0  0  0  0  0  0  0  0
  -28.4250   -8.7170  -32.8010 N   0  0  0  0  0  0  0  0  0  0  0  0
  -28.1390   -5.3530  -31.7400 C   0  0  0  0  0  0  0  0  0  0  0  0
  -27.4090   -4.0810  -31.8270 C   0  0  0  0  0  0  0  0  0  0  0  0
  -26.3540   -4.0060  -32.7060 C   0  0  0  0  0  0  0  0  0  0  0  0
  -25.6490   -2.8649  -32.8223 N   0  0  0  0  0  0  0  0  0  0  0  0
  1  3  1  0
  1  2  2  3
  2  4  1  0
  4  5  1  0
  5  6  2  3
  6  7  1  0
M  END
>  <name>  (4) 
Car Nac Nd0 Car Car Car Nac

>  <indices>  (4) 
[0, 1, 2]

>  <dummy>  (4) 
2

>  <tasks>  (4) 
probe_placing close_aromatic_ring close_aromatic_ring close_aromatic_ring

>  <current_task>  (4) 
close_aromatic_ring

>  <prot_clashes>  (4) 
5

>  <NBS phar>  (4) 
0.12

>  <NBS_non-phar>  (4) 
0.4729970296223958

>  <NBS>  (4) 
0.5929970296223959

>  <source_stage>  (4) 
scored

>  <source_iter>  (4) 
3

>  <source_parent_mol>  (4) 
3

>  <source_scenario>  (4) 
1 0 3

>  <source_rank_in_scored_call>  (4) 
1

>  <source_current_task>  (4) 
close_aromatic_ring

>  <scenario>  (4) 
1 0 3

>  <rotatable_bond_torsions>  (4) 
0,1,3,4;1,3,4,5

>  <reason_to_skip>  (4) 
incorrect arom ring closing

$$$$

     RDKit          3D

  7  6  0  0  0  0  0  0  0  0999 V2000
  -28.5750   -7.4640  -32.1890 C   0  0  0  0  0  0  0  0  0  0  0  0
  -27.7510   -6.4440  -32.5620 N   0  0  0  0  0  0  0  0  0  0  0  0
  -28.4250   -8.7170  -32.8010 N   0  0  0  0  0  0  0  0  0  0  0  0
  -28.1390   -5.3530  -31.7400 C   0  0  0  0  0  0  0  0  0  0  0  0
  -27.4090   -4.0810  -31.8270 C   0  0  0  0  0  0  0  0  0  0  0  0
  -26.3540   -4.0060  -32.7060 C   0  0  0  0  0  0  0  0  0  0  0  0
  -25.9698   -5.0942  -33.5009 N   0  0  0  0  0  0  0  0  0  0  0  0
  1  3  1  0
  1  2  2  3
  2  4  1  0
  4  5  1  0
  5  6  2  3
  6  7  1  0
M  END
>  <name>  (5) 
Car Nac Nd0 Car Car Car Nac

>  <indices>  (5) 
[0, 1, 2]

>  <dummy>  (5) 
2

>  <tasks>  (5) 
probe_placing close_aromatic_ring close_aromatic_ring close_aromatic_ring

>  <current_task>  (5) 
close_aromatic_ring

>  <prot_clashes>  (5) 
5

>  <NBS phar>  (5) 
0.12

>  <NBS_non-phar>  (5) 
0.4729970296223958

>  <NBS>  (5) 
0.5929970296223959

>  <source_stage>  (5) 
scored

>  <source_iter>  (5) 
3

>  <source_parent_mol>  (5) 
3

>  <source_scenario>  (5) 
1 0 3

>  <source_rank_in_scored_call>  (5) 
1

>  <source_current_task>  (5) 
close_aromatic_ring

>  <scenario>  (5) 
1 0 3

>  <rotatable_bond_torsions>  (5) 
0,1,3,4;1,3,4,5

>  <reason_to_skip>  (5) 
intramol repulsion

$$$$

     RDKit          3D

  7  6  0  0  0  0  0  0  0  0999 V2000
  -28.5750   -7.4640  -32.1890 C   0  0  0  0  0  0  0  0  0  0  0  0
  -27.7510   -6.4440  -32.5620 N   0  0  0  0  0  0  0  0  0  0  0  0
  -28.4250   -8.7170  -32.8010 N   0  0  0  0  0  0  0  0  0  0  0  0
  -28.1390   -5.3530  -31.7400 C   0  0  0  0  0  0  0  0  0  0  0  0
  -27.4090   -4.0810  -31.8270 C   0  0  0  0  0  0  0  0  0  0  0  0
  -26.3540   -4.0060  -32.7060 C   0  0  0  0  0  0  0  0  0  0  0  0
    0.0000    0.0000    0.0000 O   0  0  0  0  0  0  0  0  0  0  0  0
  1  3  1  0
  1  2  2  3
  2  4  1  0
  4  5  1  0
  5  6  2  3
  6  7  1  0
M  END
>  <name>  (6) 
Car Nac Nd0 Car Car Car O_a

>  <indices>  (6) 
[0, 1, 2]

>  <dummy>  (6) 
2

>  <tasks>  (6) 
probe_placing close_aromatic_ring close_aromatic_ring close_aromatic_ring

>  <current_task>  (6) 
close_aromatic_ring

>  <prot_clashes>  (6) 
5

>  <NBS phar>  (6) 
0.12

>  <NBS_non-phar>  (6) 
0.4729970296223958

>  <NBS>  (6) 
0.5929970296223959

>  <source_stage>  (6) 
scored

>  <source_iter>  (6) 
3

>  <source_parent_mol>  (6) 
3

>  <source_scenario>  (6) 
1 0 3

>  <source_rank_in_scored_call>  (6) 
1

>  <source_current_task>  (6) 
close_aromatic_ring

>  <scenario>  (6) 
1 0 3

>  <rotatable_bond_torsions>  (6) 
0,1,3,4;1,3,4,5

>  <reason_to_skip>  (6) 
some_atom_counter_exceeded

$$$$

     RDKit          3D

  7  6  0  0  0  0  0  0  0  0999 V2000
  -28.5750   -7.4640  -32.1890 C   0  0  0  0  0  0  0  0  0  0  0  0
  -27.7510   -6.4440  -32.5620 N   0  0  0  0  0  0  0  0  0  0  0  0
  -28.4250   -8.7170  -32.8010 N   0  0  0  0  0  0  0  0  0  0  0  0
  -28.1390   -5.3530  -31.7400 C   0  0  0  0  0  0  0  0  0  0  0  0
  -27.4090   -4.0810  -31.8270 C   0  0  0  0  0  0  0  0  0  0  0  0
  -26.3540   -4.0060  -32.7060 C   0  0  0  0  0  0  0  0  0  0  0  0
    0.0000    0.0000    0.0000 O   0  0  0  0  0  0  0  0  0  0  0  0
  1  3  1  0
  1  2  2  3
  2  4  1  0
  4  5  1  0
  5  6  2  3
  6  7  1  0
M  END
>  <name>  (7) 
Car Nac Nd0 Car Car Car O_a

>  <indices>  (7) 
[0, 1, 2]

>  <dummy>  (7) 
2

>  <tasks>  (7) 
probe_placing close_aromatic_ring close_aromatic_ring close_aromatic_ring

>  <current_task>  (7) 
close_aromatic_ring

>  <prot_clashes>  (7) 
5

>  <NBS phar>  (7) 
0.12

>  <NBS_non-phar>  (7) 
0.4729970296223958

>  <NBS>  (7) 
0.5929970296223959

>  <source_stage>  (7) 
scored

>  <source_iter>  (7) 
3

>  <source_parent_mol>  (7) 
3

>  <source_scenario>  (7) 
1 0 3

>  <source_rank_in_scored_call>  (7) 
1

>  <source_current_task>  (7) 
close_aromatic_ring

>  <scenario>  (7) 
1 0 3

>  <rotatable_bond_torsions>  (7) 
0,1,3,4;1,3,4,5

>  <reason_to_skip>  (7) 
some_atom_counter_exceeded

$$$$

     RDKit          3D

  7  6  0  0  0  0  0  0  0  0999 V2000
  -28.5750   -7.4640  -32.1890 C   0  0  0  0  0  0  0  0  0  0  0  0
  -27.7510   -6.4440  -32.5620 N   0  0  0  0  0  0  0  0  0  0  0  0
  -28.4250   -8.7170  -32.8010 N   0  0  0  0  0  0  0  0  0  0  0  0
  -28.1390   -5.3530  -31.7400 C   0  0  0  0  0  0  0  0  0  0  0  0
  -27.4090   -4.0810  -31.8270 C   0  0  0  0  0  0  0  0  0  0  0  0
  -26.3540   -4.0060  -32.7060 C   0  0  0  0  0  0  0  0  0  0  0  0
  -26.0963   -4.5991  -34.0015 C   0  0  0  0  0  0  0  0  0  0  0  0
  1  3  1  0
  1  2  2  3
  2  4  1  0
  4  5  1  0
  5  6  2  3
  6  7  1  0
M  END
>  <name>  (8) 
Car Nac Nd0 Car Car Car Car

>  <indices>  (8) 
[0, 1, 2]

>  <dummy>  (8) 
2

>  <tasks>  (8) 
probe_placing close_aromatic_ring close_aromatic_ring close_aromatic_ring

>  <current_task>  (8) 
close_aromatic_ring

>  <prot_clashes>  (8) 
5

>  <NBS phar>  (8) 
0.12

>  <NBS_non-phar>  (8) 
0.4729970296223958

>  <NBS>  (8) 
0.5929970296223959

>  <source_stage>  (8) 
scored

>  <source_iter>  (8) 
3

>  <source_parent_mol>  (8) 
3

>  <source_scenario>  (8) 
1 0 3

>  <source_rank_in_scored_call>  (8) 
1

>  <source_current_task>  (8) 
close_aromatic_ring

>  <scenario>  (8) 
1 0 3

>  <rotatable_bond_torsions>  (8) 
0,1,3,4;1,3,4,5

>  <reason_to_skip>  (8) 
incorrect arom ring closing

$$$$

     RDKit          3D

  7  6  0  0  0  0  0  0  0  0999 V2000
  -28.5750   -7.4640  -32.1890 C   0  0  0  0  0  0  0  0  0  0  0  0
  -27.7510   -6.4440  -32.5620 N   0  0  0  0  0  0  0  0  0  0  0  0
  -28.4250   -8.7170  -32.8010 N   0  0  0  0  0  0  0  0  0  0  0  0
  -28.1390   -5.3530  -31.7400 C   0  0  0  0  0  0  0  0  0  0  0  0
  -27.4090   -4.0810  -31.8270 C   0  0  0  0  0  0  0  0  0  0  0  0
  -26.3540   -4.0060  -32.7060 C   0  0  0  0  0  0  0  0  0  0  0  0
  -25.1567   -3.1653  -32.6444 C   0  0  0  0  0  0  0  0  0  0  0  0
  1  3  1  0
  1  2  2  3
  2  4  1  0
  4  5  1  0
  5  6  2  3
  6  7  1  0
M  END
>  <name>  (9) 
Car Nac Nd0 Car Car Car Car

>  <indices>  (9) 
[0, 1, 2]

>  <dummy>  (9) 
2

>  <tasks>  (9) 
probe_placing close_aromatic_ring close_aromatic_ring close_aromatic_ring

>  <current_task>  (9) 
close_aromatic_ring

>  <prot_clashes>  (9) 
5

>  <NBS phar>  (9) 
0.12

>  <NBS_non-phar>  (9) 
0.4729970296223958

>  <NBS>  (9) 
0.5929970296223959

>  <source_stage>  (9) 
scored

>  <source_iter>  (9) 
3

>  <source_parent_mol>  (9) 
3

>  <source_scenario>  (9) 
1 0 3

>  <source_rank_in_scored_call>  (9) 
1

>  <source_current_task>  (9) 
close_aromatic_ring

>  <scenario>  (9) 
1 0 3

>  <rotatable_bond_torsions>  (9) 
0,1,3,4;1,3,4,5

>  <reason_to_skip>  (9) 
incorrect arom ring closing

$$$$

     RDKit          3D

  7  6  0  0  0  0  0  0  0  0999 V2000
  -28.5750   -7.4640  -32.1890 C   0  0  0  0  0  0  0  0  0  0  0  0
  -27.7510   -6.4440  -32.5620 N   0  0  0  0  0  0  0  0  0  0  0  0
  -28.4250   -8.7170  -32.8010 N   0  0  0  0  0  0  0  0  0  0  0  0
  -28.1390   -5.3530  -31.7400 C   0  0  0  0  0  0  0  0  0  0  0  0
  -27.4090   -4.0810  -31.8270 C   0  0  0  0  0  0  0  0  0  0  0  0
  -26.3540   -4.0060  -32.7060 C   0  0  0  0  0  0  0  0  0  0  0  0
  -25.6090   -2.8000  -32.7197 C   0  0  0  0  0  0  0  0  0  0  0  0
  1  3  1  0
  1  2  2  3
  2  4  1  0
  4  5  1  0
  5  6  2  3
  6  7  1  0
M  END
>  <name>  (10) 
Car Nac Nd0 Car Car Car Car

>  <indices>  (10) 
[0, 1, 2]

>  <dummy>  (10) 
2

>  <tasks>  (10) 
probe_placing close_aromatic_ring close_aromatic_ring close_aromatic_ring

>  <current_task>  (10) 
close_aromatic_ring

>  <prot_clashes>  (10) 
5

>  <NBS phar>  (10) 
0.12

>  <NBS_non-phar>  (10) 
0.4729970296223958

>  <NBS>  (10) 
0.5929970296223959

>  <source_stage>  (10) 
scored

>  <source_iter>  (10) 
3

>  <source_parent_mol>  (10) 
3

>  <source_scenario>  (10) 
1 0 3

>  <source_rank_in_scored_call>  (10) 
1

>  <source_current_task>  (10) 
close_aromatic_ring

>  <scenario>  (10) 
1 0 3

>  <rotatable_bond_torsions>  (10) 
0,1,3,4;1,3,4,5

>  <reason_to_skip>  (10) 
incorrect arom ring closing

$$$$

     RDKit          3D

  7  6  0  0  0  0  0  0  0  0999 V2000
  -28.5750   -7.4640  -32.1890 C   0  0  0  0  0  0  0  0  0  0  0  0
  -27.7510   -6.4440  -32.5620 N   0  0  0  0  0  0  0  0  0  0  0  0
  -28.4250   -8.7170  -32.8010 N   0  0  0  0  0  0  0  0  0  0  0  0
  -28.1390   -5.3530  -31.7400 C   0  0  0  0  0  0  0  0  0  0  0  0
  -27.4090   -4.0810  -31.8270 C   0  0  0  0  0  0  0  0  0  0  0  0
  -26.3540   -4.0060  -32.7060 C   0  0  0  0  0  0  0  0  0  0  0  0
  -25.7335   -4.8212  -33.6281 N   0  0  0  0  0  0  0  0  0  0  0  0
  1  3  1  0
  1  2  2  3
  2  4  1  0
  4  5  1  0
  5  6  2  3
  6  7  1  0
M  END
>  <name>  (11) 
Car Nac Nd0 Car Car Car Nd0

>  <indices>  (11) 
[0, 1, 2]

>  <dummy>  (11) 
2

>  <tasks>  (11) 
probe_placing close_aromatic_ring close_aromatic_ring close_aromatic_ring

>  <current_task>  (11) 
close_aromatic_ring

>  <prot_clashes>  (11) 
5

>  <NBS phar>  (11) 
0.12

>  <NBS_non-phar>  (11) 
0.4729970296223958

>  <NBS>  (11) 
0.5929970296223959

>  <source_stage>  (11) 
scored

>  <source_iter>  (11) 
3

>  <source_parent_mol>  (11) 
3

>  <source_scenario>  (11) 
1 0 3

>  <source_rank_in_scored_call>  (11) 
1

>  <source_current_task>  (11) 
close_aromatic_ring

>  <scenario>  (11) 
1 0 3

>  <rotatable_bond_torsions>  (11) 
0,1,3,4;1,3,4,5

>  <reason_to_skip>  (11) 
bad angles

$$$$

     RDKit          3D

  7  6  0  0  0  0  0  0  0  0999 V2000
  -28.5750   -7.4640  -32.1890 C   0  0  0  0  0  0  0  0  0  0  0  0
  -27.7510   -6.4440  -32.5620 N   0  0  0  0  0  0  0  0  0  0  0  0
  -28.4250   -8.7170  -32.8010 N   0  0  0  0  0  0  0  0  0  0  0  0
  -28.1390   -5.3530  -31.7400 C   0  0  0  0  0  0  0  0  0  0  0  0
  -27.4090   -4.0810  -31.8270 C   0  0  0  0  0  0  0  0  0  0  0  0
  -26.3540   -4.0060  -32.7060 C   0  0  0  0  0  0  0  0  0  0  0  0
  -26.1584   -4.7233  -33.8426 N   0  0  0  0  0  0  0  0  0  0  0  0
  1  3  1  0
  1  2  2  3
  2  4  1  0
  4  5  1  0
  5  6  2  3
  6  7  1  0
M  END
>  <name>  (12) 
Car Nac Nd0 Car Car Car Nac

>  <indices>  (12) 
[0, 1, 2]

>  <dummy>  (12) 
2

>  <tasks>  (12) 
probe_placing close_aromatic_ring close_aromatic_ring close_aromatic_ring

>  <current_task>  (12) 
close_aromatic_ring

>  <prot_clashes>  (12) 
5

>  <NBS phar>  (12) 
0.12

>  <NBS_non-phar>  (12) 
0.4729970296223958

>  <NBS>  (12) 
0.5929970296223959

>  <source_stage>  (12) 
scored

>  <source_iter>  (12) 
3

>  <source_parent_mol>  (12) 
3

>  <source_scenario>  (12) 
1 0 3

>  <source_rank_in_scored_call>  (12) 
1

>  <source_current_task>  (12) 
close_aromatic_ring

>  <scenario>  (12) 
1 0 3

>  <rotatable_bond_torsions>  (12) 
0,1,3,4;1,3,4,5

>  <reason_to_skip>  (12) 
incorrect arom ring closing

$$$$

     RDKit          3D

  7  6  0  0  0  0  0  0  0  0999 V2000
  -28.5750   -7.4640  -32.1890 C   0  0  0  0  0  0  0  0  0  0  0  0
  -27.7510   -6.4440  -32.5620 N   0  0  0  0  0  0  0  0  0  0  0  0
  -28.4250   -8.7170  -32.8010 N   0  0  0  0  0  0  0  0  0  0  0  0
  -28.1390   -5.3530  -31.7400 C   0  0  0  0  0  0  0  0  0  0  0  0
  -27.4090   -4.0810  -31.8270 C   0  0  0  0  0  0  0  0  0  0  0  0
  -26.3540   -4.0060  -32.7060 C   0  0  0  0  0  0  0  0  0  0  0  0
  -25.2536   -3.1879  -32.5003 N   0  0  0  0  0  0  0  0  0  0  0  0
  1  3  1  0
  1  2  2  3
  2  4  1  0
  4  5  1  0
  5  6  2  3
  6  7  1  0
M  END
>  <name>  (13) 
Car Nac Nd0 Car Car Car Nac

>  <indices>  (13) 
[0, 1, 2]

>  <dummy>  (13) 
2

>  <tasks>  (13) 
probe_placing close_aromatic_ring close_aromatic_ring close_aromatic_ring

>  <current_task>  (13) 
close_aromatic_ring

>  <prot_clashes>  (13) 
5

>  <NBS phar>  (13) 
0.12

>  <NBS_non-phar>  (13) 
0.4729970296223958

>  <NBS>  (13) 
0.5929970296223959

>  <source_stage>  (13) 
scored

>  <source_iter>  (13) 
3

>  <source_parent_mol>  (13) 
3

>  <source_scenario>  (13) 
1 0 3

>  <source_rank_in_scored_call>  (13) 
1

>  <source_current_task>  (13) 
close_aromatic_ring

>  <scenario>  (13) 
1 0 3

>  <rotatable_bond_torsions>  (13) 
0,1,3,4;1,3,4,5

>  <reason_to_skip>  (13) 
incorrect arom ring closing

$$$$

     RDKit          3D

  7  6  0  0  0  0  0  0  0  0999 V2000
  -28.5750   -7.4640  -32.1890 C   0  0  0  0  0  0  0  0  0  0  0  0
  -27.7510   -6.4440  -32.5620 N   0  0  0  0  0  0  0  0  0  0  0  0
  -28.4250   -8.7170  -32.8010 N   0  0  0  0  0  0  0  0  0  0  0  0
  -28.1390   -5.3530  -31.7400 C   0  0  0  0  0  0  0  0  0  0  0  0
  -27.4090   -4.0810  -31.8270 C   0  0  0  0  0  0  0  0  0  0  0  0
  -26.3540   -4.0060  -32.7060 C   0  0  0  0  0  0  0  0  0  0  0  0
  -25.6371   -2.8257  -32.8031 N   0  0  0  0  0  0  0  0  0  0  0  0
  1  3  1  0
  1  2  2  3
  2  4  1  0
  4  5  1  0
  5  6  2  3
  6  7  1  0
M  END
>  <name>  (14) 
Car Nac Nd0 Car Car Car Nd0

>  <indices>  (14) 
[0, 1, 2]

>  <dummy>  (14) 
2

>  <tasks>  (14) 
probe_placing close_aromatic_ring close_aromatic_ring close_aromatic_ring

>  <current_task>  (14) 
close_aromatic_ring

>  <prot_clashes>  (14) 
5

>  <NBS phar>  (14) 
0.12

>  <NBS_non-phar>  (14) 
0.4729970296223958

>  <NBS>  (14) 
0.5929970296223959

>  <source_stage>  (14) 
scored

>  <source_iter>  (14) 
3

>  <source_parent_mol>  (14) 
3

>  <source_scenario>  (14) 
1 0 3

>  <source_rank_in_scored_call>  (14) 
1

>  <source_current_task>  (14) 
close_aromatic_ring

>  <scenario>  (14) 
1 0 3

>  <rotatable_bond_torsions>  (14) 
0,1,3,4;1,3,4,5

>  <reason_to_skip>  (14) 
incorrect arom ring closing

$$$$

     RDKit          3D

  7  6  0  0  0  0  0  0  0  0999 V2000
  -28.5750   -7.4640  -32.1890 C   0  0  0  0  0  0  0  0  0  0  0  0
  -27.7510   -6.4440  -32.5620 N   0  0  0  0  0  0  0  0  0  0  0  0
  -28.4250   -8.7170  -32.8010 N   0  0  0  0  0  0  0  0  0  0  0  0
  -28.1390   -5.3530  -31.7400 C   0  0  0  0  0  0  0  0  0  0  0  0
  -27.4090   -4.0810  -31.8270 C   0  0  0  0  0  0  0  0  0  0  0  0
  -26.3540   -4.0060  -32.7060 C   0  0  0  0  0  0  0  0  0  0  0  0
  -25.5483   -2.6639  -32.8025 C   0  0  0  0  0  0  0  0  0  0  0  0
  1  3  1  0
  1  2  2  3
  2  4  1  0
  4  5  1  0
  5  6  2  3
  6  7  1  0
M  END
>  <name>  (15) 
Car Nac Nd0 Car Car Car Car

>  <indices>  (15) 
[0, 1, 2]

>  <dummy>  (15) 
2

>  <tasks>  (15) 
probe_placing close_aromatic_ring close_aromatic_ring close_aromatic_ring

>  <current_task>  (15) 
close_aromatic_ring

>  <prot_clashes>  (15) 
5

>  <NBS phar>  (15) 
0.12

>  <NBS_non-phar>  (15) 
0.4729970296223958

>  <NBS>  (15) 
0.5929970296223959

>  <source_stage>  (15) 
scored

>  <source_iter>  (15) 
3

>  <source_parent_mol>  (15) 
3

>  <source_scenario>  (15) 
1 0 3

>  <source_rank_in_scored_call>  (15) 
1

>  <source_current_task>  (15) 
close_aromatic_ring

>  <scenario>  (15) 
1 0 3

>  <rotatable_bond_torsions>  (15) 
0,1,3,4;1,3,4,5

>  <reason_to_skip>  (15) 
incorrect arom ring closing

$$$$

     RDKit          3D

  7  6  0  0  0  0  0  0  0  0999 V2000
  -28.5750   -7.4640  -32.1890 C   0  0  0  0  0  0  0  0  0  0  0  0
  -27.7510   -6.4440  -32.5620 N   0  0  0  0  0  0  0  0  0  0  0  0
  -28.4250   -8.7170  -32.8010 N   0  0  0  0  0  0  0  0  0  0  0  0
  -28.1390   -5.3530  -31.7400 C   0  0  0  0  0  0  0  0  0  0  0  0
  -27.4090   -4.0810  -31.8270 C   0  0  0  0  0  0  0  0  0  0  0  0
  -26.3540   -4.0060  -32.7060 C   0  0  0  0  0  0  0  0  0  0  0  0
    0.0000    0.0000    0.0000 O   0  0  0  0  0  0  0  0  0  0  0  0
  1  3  1  0
  1  2  2  3
  2  4  1  0
  4  5  1  0
  5  6  2  3
  6  7  1  0
M  END
>  <name>  (16) 
Car Nac Nd0 Car Car Car O_a

>  <indices>  (16) 
[0, 1, 2]

>  <dummy>  (16) 
2

>  <tasks>  (16) 
probe_placing close_aromatic_ring close_aromatic_ring close_aromatic_ring

>  <current_task>  (16) 
close_aromatic_ring

>  <prot_clashes>  (16) 
5

>  <NBS phar>  (16) 
0.12

>  <NBS_non-phar>  (16) 
0.4729970296223958

>  <NBS>  (16) 
0.5929970296223959

>  <source_stage>  (16) 
scored

>  <source_iter>  (16) 
3

>  <source_parent_mol>  (16) 
3

>  <source_scenario>  (16) 
1 0 3

>  <source_rank_in_scored_call>  (16) 
1

>  <source_current_task>  (16) 
close_aromatic_ring

>  <scenario>  (16) 
1 0 3

>  <rotatable_bond_torsions>  (16) 
0,1,3,4;1,3,4,5

>  <reason_to_skip>  (16) 
some_atom_counter_exceeded

$$$$

     RDKit          3D

  7  6  0  0  0  0  0  0  0  0999 V2000
  -28.5750   -7.4640  -32.1890 C   0  0  0  0  0  0  0  0  0  0  0  0
  -27.7510   -6.4440  -32.5620 N   0  0  0  0  0  0  0  0  0  0  0  0
  -28.4250   -8.7170  -32.8010 N   0  0  0  0  0  0  0  0  0  0  0  0
  -28.1390   -5.3530  -31.7400 C   0  0  0  0  0  0  0  0  0  0  0  0
  -27.4090   -4.0810  -31.8270 C   0  0  0  0  0  0  0  0  0  0  0  0
  -26.3540   -4.0060  -32.7060 C   0  0  0  0  0  0  0  0  0  0  0  0
  -26.3218   -5.3886  -33.3090 C   0  0  0  0  0  0  0  0  0  0  0  0
  1  3  1  0
  1  2  2  3
  2  4  1  0
  4  5  1  0
  5  6  2  3
  6  7  1  0
M  END
>  <name>  (17) 
Car Nac Nd0 Car Car Car Car

>  <indices>  (17) 
[0, 1, 2]

>  <dummy>  (17) 
2

>  <tasks>  (17) 
probe_placing close_aromatic_ring close_aromatic_ring close_aromatic_ring

>  <current_task>  (17) 
close_aromatic_ring

>  <prot_clashes>  (17) 
5

>  <NBS phar>  (17) 
0.12

>  <NBS_non-phar>  (17) 
0.4729970296223958

>  <NBS>  (17) 
0.5929970296223959

>  <source_stage>  (17) 
scored

>  <source_iter>  (17) 
3

>  <source_parent_mol>  (17) 
3

>  <source_scenario>  (17) 
1 0 3

>  <source_rank_in_scored_call>  (17) 
1

>  <source_current_task>  (17) 
close_aromatic_ring

>  <scenario>  (17) 
1 0 3

>  <rotatable_bond_torsions>  (17) 
0,1,3,4;1,3,4,5

>  <reason_to_skip>  (17) 
incorrect arom ring closing

$$$$

     RDKit          3D

  7  6  0  0  0  0  0  0  0  0999 V2000
  -28.5750   -7.4640  -32.1890 C   0  0  0  0  0  0  0  0  0  0  0  0
  -27.7510   -6.4440  -32.5620 N   0  0  0  0  0  0  0  0  0  0  0  0
  -28.4250   -8.7170  -32.8010 N   0  0  0  0  0  0  0  0  0  0  0  0
  -28.1390   -5.3530  -31.7400 C   0  0  0  0  0  0  0  0  0  0  0  0
  -27.4090   -4.0810  -31.8270 C   0  0  0  0  0  0  0  0  0  0  0  0
  -26.3540   -4.0060  -32.7060 C   0  0  0  0  0  0  0  0  0  0  0  0
  -26.3559   -5.3729  -33.2834 N   0  0  0  0  0  0  0  0  0  0  0  0
  1  3  1  0
  1  2  2  3
  2  4  1  0
  4  5  1  0
  5  6  2  3
  6  7  1  0
M  END
>  <name>  (18) 
Car Nac Nd0 Car Car Car Nac

>  <indices>  (18) 
[0, 1, 2]

>  <dummy>  (18) 
2

>  <tasks>  (18) 
probe_placing close_aromatic_ring close_aromatic_ring close_aromatic_ring

>  <current_task>  (18) 
close_aromatic_ring

>  <prot_clashes>  (18) 
5

>  <NBS phar>  (18) 
0.12

>  <NBS_non-phar>  (18) 
0.4729970296223958

>  <NBS>  (18) 
0.5929970296223959

>  <source_stage>  (18) 
scored

>  <source_iter>  (18) 
3

>  <source_parent_mol>  (18) 
3

>  <source_scenario>  (18) 
1 0 3

>  <source_rank_in_scored_call>  (18) 
1

>  <source_current_task>  (18) 
close_aromatic_ring

>  <scenario>  (18) 
1 0 3

>  <rotatable_bond_torsions>  (18) 
0,1,3,4;1,3,4,5

>  <reason_to_skip>  (18) 
incorrect arom ring closing

$$$$

     RDKit          3D

  7  6  0  0  0  0  0  0  0  0999 V2000
  -28.5750   -7.4640  -32.1890 C   0  0  0  0  0  0  0  0  0  0  0  0
  -27.7510   -6.4440  -32.5620 N   0  0  0  0  0  0  0  0  0  0  0  0
  -28.4250   -8.7170  -32.8010 N   0  0  0  0  0  0  0  0  0  0  0  0
  -28.1390   -5.3530  -31.7400 C   0  0  0  0  0  0  0  0  0  0  0  0
  -27.4090   -4.0810  -31.8270 C   0  0  0  0  0  0  0  0  0  0  0  0
  -26.3540   -4.0060  -32.7060 C   0  0  0  0  0  0  0  0  0  0  0  0
  -26.3335   -5.3165  -33.3046 N   0  0  0  0  0  0  0  0  0  0  0  0
  1  3  1  0
  1  2  2  3
  2  4  1  0
  4  5  1  0
  5  6  2  3
  6  7  1  0
M  END
>  <name>  (19) 
Car Nac Nd0 Car Car Car Nd0

>  <indices>  (19) 
[0, 1, 2]

>  <dummy>  (19) 
2

>  <tasks>  (19) 
probe_placing close_aromatic_ring close_aromatic_ring close_aromatic_ring

>  <current_task>  (19) 
close_aromatic_ring

>  <prot_clashes>  (19) 
5

>  <NBS phar>  (19) 
0.12

>  <NBS_non-phar>  (19) 
0.4729970296223958

>  <NBS>  (19) 
0.5929970296223959

>  <source_stage>  (19) 
scored

>  <source_iter>  (19) 
3

>  <source_parent_mol>  (19) 
3

>  <source_scenario>  (19) 
1 0 3

>  <source_rank_in_scored_call>  (19) 
1

>  <source_current_task>  (19) 
close_aromatic_ring

>  <scenario>  (19) 
1 0 3

>  <rotatable_bond_torsions>  (19) 
0,1,3,4;1,3,4,5

>  <reason_to_skip>  (19) 
incorrect arom ring closing

$$$$

     RDKit          3D

  7  6  0  0  0  0  0  0  0  0999 V2000
  -28.5750   -7.4640  -32.1890 C   0  0  0  0  0  0  0  0  0  0  0  0
  -27.7510   -6.4440  -32.5620 N   0  0  0  0  0  0  0  0  0  0  0  0
  -28.4250   -8.7170  -32.8010 N   0  0  0  0  0  0  0  0  0  0  0  0
  -28.1390   -5.3530  -31.7400 C   0  0  0  0  0  0  0  0  0  0  0  0
  -27.4090   -4.0810  -31.8270 C   0  0  0  0  0  0  0  0  0  0  0  0
  -26.3540   -4.0060  -32.7060 C   0  0  0  0  0  0  0  0  0  0  0  0
  -26.3256   -3.1102  -33.8677 N   0  0  0  0  0  0  0  0  0  0  0  0
  1  3  1  0
  1  2  2  3
  2  4  1  0
  4  5  1  0
  5  6  2  3
  6  7  1  0
M  END
>  <name>  (20) 
Car Nac Nd0 Car Car Car Nac

>  <indices>  (20) 
[0, 1, 2]

>  <dummy>  (20) 
2

>  <tasks>  (20) 
probe_placing close_aromatic_ring close_aromatic_ring close_aromatic_ring

>  <current_task>  (20) 
close_aromatic_ring

>  <prot_clashes>  (20) 
5

>  <NBS phar>  (20) 
0.12

>  <NBS_non-phar>  (20) 
0.4729970296223958

>  <NBS>  (20) 
0.5929970296223959

>  <source_stage>  (20) 
scored

>  <source_iter>  (20) 
3

>  <source_parent_mol>  (20) 
3

>  <source_scenario>  (20) 
1 0 3

>  <source_rank_in_scored_call>  (20) 
1

>  <source_current_task>  (20) 
close_aromatic_ring

>  <scenario>  (20) 
1 0 3

>  <rotatable_bond_torsions>  (20) 
0,1,3,4;1,3,4,5

>  <reason_to_skip>  (20) 
incorrect arom ring closing

$$$$

     RDKit          3D

  7  6  0  0  0  0  0  0  0  0999 V2000
  -28.5750   -7.4640  -32.1890 C   0  0  0  0  0  0  0  0  0  0  0  0
  -27.7510   -6.4440  -32.5620 N   0  0  0  0  0  0  0  0  0  0  0  0
  -28.4250   -8.7170  -32.8010 N   0  0  0  0  0  0  0  0  0  0  0  0
  -28.1390   -5.3530  -31.7400 C   0  0  0  0  0  0  0  0  0  0  0  0
  -27.4090   -4.0810  -31.8270 C   0  0  0  0  0  0  0  0  0  0  0  0
  -26.3540   -4.0060  -32.7060 C   0  0  0  0  0  0  0  0  0  0  0  0
  -26.3263   -2.8602  -33.6561 C   0  0  0  0  0  0  0  0  0  0  0  0
  1  3  1  0
  1  2  2  3
  2  4  1  0
  4  5  1  0
  5  6  2  3
  6  7  1  0
M  END
>  <name>  (21) 
Car Nac Nd0 Car Car Car Car

>  <indices>  (21) 
[0, 1, 2]

>  <dummy>  (21) 
2

>  <tasks>  (21) 
probe_placing close_aromatic_ring close_aromatic_ring close_aromatic_ring

>  <current_task>  (21) 
close_aromatic_ring

>  <prot_clashes>  (21) 
5

>  <NBS phar>  (21) 
0.12

>  <NBS_non-phar>  (21) 
0.4729970296223958

>  <NBS>  (21) 
0.5929970296223959

>  <source_stage>  (21) 
scored

>  <source_iter>  (21) 
3

>  <source_parent_mol>  (21) 
3

>  <source_scenario>  (21) 
1 0 3

>  <source_rank_in_scored_call>  (21) 
1

>  <source_current_task>  (21) 
close_aromatic_ring

>  <scenario>  (21) 
1 0 3

>  <rotatable_bond_torsions>  (21) 
0,1,3,4;1,3,4,5

>  <reason_to_skip>  (21) 
incorrect arom ring closing

$$$$

     RDKit          3D

  7  6  0  0  0  0  0  0  0  0999 V2000
  -28.5750   -7.4640  -32.1890 C   0  0  0  0  0  0  0  0  0  0  0  0
  -27.7510   -6.4440  -32.5620 N   0  0  0  0  0  0  0  0  0  0  0  0
  -28.4250   -8.7170  -32.8010 N   0  0  0  0  0  0  0  0  0  0  0  0
  -28.1390   -5.3530  -31.7400 C   0  0  0  0  0  0  0  0  0  0  0  0
  -27.4090   -4.0810  -31.8270 C   0  0  0  0  0  0  0  0  0  0  0  0
  -26.3540   -4.0060  -32.7060 C   0  0  0  0  0  0  0  0  0  0  0  0
  -25.0245   -4.5542  -32.5831 N   0  0  0  0  0  0  0  0  0  0  0  0
  1  3  1  0
  1  2  2  3
  2  4  1  0
  4  5  1  0
  5  6  2  3
  6  7  1  0
M  END
>  <name>  (22) 
Car Nac Nd0 Car Car Car Nac

>  <indices>  (22) 
[0, 1, 2]

>  <dummy>  (22) 
2

>  <tasks>  (22) 
probe_placing close_aromatic_ring close_aromatic_ring close_aromatic_ring

>  <current_task>  (22) 
close_aromatic_ring

>  <prot_clashes>  (22) 
5

>  <NBS phar>  (22) 
0.12

>  <NBS_non-phar>  (22) 
0.4729970296223958

>  <NBS>  (22) 
0.5929970296223959

>  <source_stage>  (22) 
scored

>  <source_iter>  (22) 
3

>  <source_parent_mol>  (22) 
3

>  <source_scenario>  (22) 
1 0 3

>  <source_rank_in_scored_call>  (22) 
1

>  <source_current_task>  (22) 
close_aromatic_ring

>  <scenario>  (22) 
1 0 3

>  <rotatable_bond_torsions>  (22) 
0,1,3,4;1,3,4,5

>  <reason_to_skip>  (22) 
incorrect arom ring closing

$$$$

     RDKit          3D

  7  6  0  0  0  0  0  0  0  0999 V2000
  -28.5750   -7.4640  -32.1890 C   0  0  0  0  0  0  0  0  0  0  0  0
  -27.7510   -6.4440  -32.5620 N   0  0  0  0  0  0  0  0  0  0  0  0
  -28.4250   -8.7170  -32.8010 N   0  0  0  0  0  0  0  0  0  0  0  0
  -28.1390   -5.3530  -31.7400 C   0  0  0  0  0  0  0  0  0  0  0  0
  -27.4090   -4.0810  -31.8270 C   0  0  0  0  0  0  0  0  0  0  0  0
  -26.3540   -4.0060  -32.7060 C   0  0  0  0  0  0  0  0  0  0  0  0
  -26.2521   -3.0054  -33.7265 N   0  0  0  0  0  0  0  0  0  0  0  0
  1  3  1  0
  1  2  2  3
  2  4  1  0
  4  5  1  0
  5  6  2  3
  6  7  1  0
M  END
>  <name>  (23) 
Car Nac Nd0 Car Car Car Nd0

>  <indices>  (23) 
[0, 1, 2]

>  <dummy>  (23) 
2

>  <tasks>  (23) 
probe_placing close_aromatic_ring close_aromatic_ring close_aromatic_ring

>  <current_task>  (23) 
close_aromatic_ring

>  <prot_clashes>  (23) 
5

>  <NBS phar>  (23) 
0.12

>  <NBS_non-phar>  (23) 
0.4729970296223958

>  <NBS>  (23) 
0.5929970296223959

>  <source_stage>  (23) 
scored

>  <source_iter>  (23) 
3

>  <source_parent_mol>  (23) 
3

>  <source_scenario>  (23) 
1 0 3

>  <source_rank_in_scored_call>  (23) 
1

>  <source_current_task>  (23) 
close_aromatic_ring

>  <scenario>  (23) 
1 0 3

>  <rotatable_bond_torsions>  (23) 
0,1,3,4;1,3,4,5

>  <reason_to_skip>  (23) 
incorrect arom ring closing

$$$$

     RDKit          3D

  7  6  0  0  0  0  0  0  0  0999 V2000
  -28.5750   -7.4640  -32.1890 C   0  0  0  0  0  0  0  0  0  0  0  0
  -27.7510   -6.4440  -32.5620 N   0  0  0  0  0  0  0  0  0  0  0  0
  -28.4250   -8.7170  -32.8010 N   0  0  0  0  0  0  0  0  0  0  0  0
  -28.1390   -5.3530  -31.7400 C   0  0  0  0  0  0  0  0  0  0  0  0
  -27.4090   -4.0810  -31.8270 C   0  0  0  0  0  0  0  0  0  0  0  0
  -26.3540   -4.0060  -32.7060 C   0  0  0  0  0  0  0  0  0  0  0  0
    0.0000    0.0000    0.0000 O   0  0  0  0  0  0  0  0  0  0  0  0
  1  3  1  0
  1  2  2  3
  2  4  1  0
  4  5  1  0
  5  6  2  3
  6  7  1  0
M  END
>  <name>  (24) 
Car Nac Nd0 Car Car Car O_a

>  <indices>  (24) 
[0, 1, 2]

>  <dummy>  (24) 
2

>  <tasks>  (24) 
probe_placing close_aromatic_ring close_aromatic_ring close_aromatic_ring

>  <current_task>  (24) 
close_aromatic_ring

>  <prot_clashes>  (24) 
5

>  <NBS phar>  (24) 
0.12

>  <NBS_non-phar>  (24) 
0.4729970296223958

>  <NBS>  (24) 
0.5929970296223959

>  <source_stage>  (24) 
scored

>  <source_iter>  (24) 
3

>  <source_parent_mol>  (24) 
3

>  <source_scenario>  (24) 
1 0 3

>  <source_rank_in_scored_call>  (24) 
1

>  <source_current_task>  (24) 
close_aromatic_ring

>  <scenario>  (24) 
1 0 3

>  <rotatable_bond_torsions>  (24) 
0,1,3,4;1,3,4,5

>  <reason_to_skip>  (24) 
some_atom_counter_exceeded

$$$$

     RDKit          3D

  7  6  0  0  0  0  0  0  0  0999 V2000
  -28.5750   -7.4640  -32.1890 C   0  0  0  0  0  0  0  0  0  0  0  0
  -27.7510   -6.4440  -32.5620 N   0  0  0  0  0  0  0  0  0  0  0  0
  -28.4250   -8.7170  -32.8010 N   0  0  0  0  0  0  0  0  0  0  0  0
  -28.1390   -5.3530  -31.7400 C   0  0  0  0  0  0  0  0  0  0  0  0
  -27.4090   -4.0810  -31.8270 C   0  0  0  0  0  0  0  0  0  0  0  0
  -26.3540   -4.0060  -32.7060 C   0  0  0  0  0  0  0  0  0  0  0  0
  -26.3840   -3.1681  -33.8606 C   0  0  0  0  0  0  0  0  0  0  0  0
  1  3  1  0
  1  2  2  3
  2  4  1  0
  4  5  1  0
  5  6  2  3
  6  7  1  0
M  END
>  <name>  (25) 
Car Nac Nd0 Car Car Car Car

>  <indices>  (25) 
[0, 1, 2]

>  <dummy>  (25) 
2

>  <tasks>  (25) 
probe_placing close_aromatic_ring close_aromatic_ring close_aromatic_ring

>  <current_task>  (25) 
close_aromatic_ring

>  <prot_clashes>  (25) 
5

>  <NBS phar>  (25) 
0.12

>  <NBS_non-phar>  (25) 
0.4729970296223958

>  <NBS>  (25) 
0.5929970296223959

>  <source_stage>  (25) 
scored

>  <source_iter>  (25) 
3

>  <source_parent_mol>  (25) 
3

>  <source_scenario>  (25) 
1 0 3

>  <source_rank_in_scored_call>  (25) 
1

>  <source_current_task>  (25) 
close_aromatic_ring

>  <scenario>  (25) 
1 0 3

>  <rotatable_bond_torsions>  (25) 
0,1,3,4;1,3,4,5

>  <reason_to_skip>  (25) 
incorrect arom ring closing

$$$$

     RDKit          3D

  7  6  0  0  0  0  0  0  0  0999 V2000
  -28.5750   -7.4640  -32.1890 C   0  0  0  0  0  0  0  0  0  0  0  0
  -27.7510   -6.4440  -32.5620 N   0  0  0  0  0  0  0  0  0  0  0  0
  -28.4250   -8.7170  -32.8010 N   0  0  0  0  0  0  0  0  0  0  0  0
  -28.1390   -5.3530  -31.7400 C   0  0  0  0  0  0  0  0  0  0  0  0
  -27.4090   -4.0810  -31.8270 C   0  0  0  0  0  0  0  0  0  0  0  0
  -26.3540   -4.0060  -32.7060 C   0  0  0  0  0  0  0  0  0  0  0  0
    0.0000    0.0000    0.0000 S   0  0  0  0  0  0  0  0  0  0  0  0
  1  3  1  0
  1  2  2  3
  2  4  1  0
  4  5  1  0
  5  6  2  3
  6  7  1  0
M  END
>  <name>  (26) 
Car Nac Nd0 Car Car Car Sul

>  <indices>  (26) 
[0, 1, 2]

>  <dummy>  (26) 
2

>  <tasks>  (26) 
probe_placing close_aromatic_ring close_aromatic_ring close_aromatic_ring

>  <current_task>  (26) 
close_aromatic_ring

>  <prot_clashes>  (26) 
5

>  <NBS phar>  (26) 
0.12

>  <NBS_non-phar>  (26) 
0.4729970296223958

>  <NBS>  (26) 
0.5929970296223959

>  <source_stage>  (26) 
scored

>  <source_iter>  (26) 
3

>  <source_parent_mol>  (26) 
3

>  <source_scenario>  (26) 
1 0 3

>  <source_rank_in_scored_call>  (26) 
1

>  <source_current_task>  (26) 
close_aromatic_ring

>  <scenario>  (26) 
1 0 3

>  <rotatable_bond_torsions>  (26) 
0,1,3,4;1,3,4,5

>  <reason_to_skip>  (26) 
some_atom_counter_exceeded

$$$$

     RDKit          3D

  7  6  0  0  0  0  0  0  0  0999 V2000
  -28.5750   -7.4640  -32.1890 C   0  0  0  0  0  0  0  0  0  0  0  0
  -27.7510   -6.4440  -32.5620 N   0  0  0  0  0  0  0  0  0  0  0  0
  -28.4250   -8.7170  -32.8010 N   0  0  0  0  0  0  0  0  0  0  0  0
  -28.1390   -5.3530  -31.7400 C   0  0  0  0  0  0  0  0  0  0  0  0
  -27.4090   -4.0810  -31.8270 C   0  0  0  0  0  0  0  0  0  0  0  0
  -26.3540   -4.0060  -32.7060 C   0  0  0  0  0  0  0  0  0  0  0  0
    0.0000    0.0000    0.0000 S   0  0  0  0  0  0  0  0  0  0  0  0
  1  3  1  0
  1  2  2  3
  2  4  1  0
  4  5  1  0
  5  6  2  3
  6  7  1  0
M  END
>  <name>  (27) 
Car Nac Nd0 Car Car Car Sul

>  <indices>  (27) 
[0, 1, 2]

>  <dummy>  (27) 
2

>  <tasks>  (27) 
probe_placing close_aromatic_ring close_aromatic_ring close_aromatic_ring

>  <current_task>  (27) 
close_aromatic_ring

>  <prot_clashes>  (27) 
5

>  <NBS phar>  (27) 
0.12

>  <NBS_non-phar>  (27) 
0.4729970296223958

>  <NBS>  (27) 
0.5929970296223959

>  <source_stage>  (27) 
scored

>  <source_iter>  (27) 
3

>  <source_parent_mol>  (27) 
3

>  <source_scenario>  (27) 
1 0 3

>  <source_rank_in_scored_call>  (27) 
1

>  <source_current_task>  (27) 
close_aromatic_ring

>  <scenario>  (27) 
1 0 3

>  <rotatable_bond_torsions>  (27) 
0,1,3,4;1,3,4,5

>  <reason_to_skip>  (27) 
some_atom_counter_exceeded

$$$$

     RDKit          3D

  7  6  0  0  0  0  0  0  0  0999 V2000
  -28.5750   -7.4640  -32.1890 C   0  0  0  0  0  0  0  0  0  0  0  0
  -27.7510   -6.4440  -32.5620 N   0  0  0  0  0  0  0  0  0  0  0  0
  -28.4250   -8.7170  -32.8010 N   0  0  0  0  0  0  0  0  0  0  0  0
  -28.1390   -5.3530  -31.7400 C   0  0  0  0  0  0  0  0  0  0  0  0
  -27.4090   -4.0810  -31.8270 C   0  0  0  0  0  0  0  0  0  0  0  0
  -26.3540   -4.0060  -32.7060 C   0  0  0  0  0  0  0  0  0  0  0  0
  -25.6385   -4.8264  -33.5908 N   0  0  0  0  0  0  0  0  0  0  0  0
  1  3  1  0
  1  2  2  3
  2  4  1  0
  4  5  1  0
  5  6  2  3
  6  7  1  0
M  END
>  <name>  (28) 
Car Nac Nd0 Car Car Car Nac

>  <indices>  (28) 
[0, 1, 2]

>  <dummy>  (28) 
2

>  <tasks>  (28) 
probe_placing close_aromatic_ring close_aromatic_ring close_aromatic_ring

>  <current_task>  (28) 
close_aromatic_ring

>  <prot_clashes>  (28) 
5

>  <NBS phar>  (28) 
0.12

>  <NBS_non-phar>  (28) 
0.4729970296223958

>  <NBS>  (28) 
0.5929970296223959

>  <source_stage>  (28) 
scored

>  <source_iter>  (28) 
3

>  <source_parent_mol>  (28) 
3

>  <source_scenario>  (28) 
1 0 3

>  <source_rank_in_scored_call>  (28) 
1

>  <source_current_task>  (28) 
close_aromatic_ring

>  <scenario>  (28) 
1 0 3

>  <rotatable_bond_torsions>  (28) 
0,1,3,4;1,3,4,5

>  <reason_to_skip>  (28) 
bad angles

$$$$

     RDKit          3D

  7  6  0  0  0  0  0  0  0  0999 V2000
  -28.5750   -7.4640  -32.1890 C   0  0  0  0  0  0  0  0  0  0  0  0
  -27.7510   -6.4440  -32.5620 N   0  0  0  0  0  0  0  0  0  0  0  0
  -28.4250   -8.7170  -32.8010 N   0  0  0  0  0  0  0  0  0  0  0  0
  -28.1390   -5.3530  -31.7400 C   0  0  0  0  0  0  0  0  0  0  0  0
  -27.4090   -4.0810  -31.8270 C   0  0  0  0  0  0  0  0  0  0  0  0
  -26.3540   -4.0060  -32.7060 C   0  0  0  0  0  0  0  0  0  0  0  0
    0.0000    0.0000    0.0000 O   0  0  0  0  0  0  0  0  0  0  0  0
  1  3  1  0
  1  2  2  3
  2  4  1  0
  4  5  1  0
  5  6  2  3
  6  7  1  0
M  END
>  <name>  (29) 
Car Nac Nd0 Car Car Car O_a

>  <indices>  (29) 
[0, 1, 2]

>  <dummy>  (29) 
2

>  <tasks>  (29) 
probe_placing close_aromatic_ring close_aromatic_ring close_aromatic_ring

>  <current_task>  (29) 
close_aromatic_ring

>  <prot_clashes>  (29) 
5

>  <NBS phar>  (29) 
0.12

>  <NBS_non-phar>  (29) 
0.4729970296223958

>  <NBS>  (29) 
0.5929970296223959

>  <source_stage>  (29) 
scored

>  <source_iter>  (29) 
3

>  <source_parent_mol>  (29) 
3

>  <source_scenario>  (29) 
1 0 3

>  <source_rank_in_scored_call>  (29) 
1

>  <source_current_task>  (29) 
close_aromatic_ring

>  <scenario>  (29) 
1 0 3

>  <rotatable_bond_torsions>  (29) 
0,1,3,4;1,3,4,5

>  <reason_to_skip>  (29) 
some_atom_counter_exceeded

$$$$

     RDKit          3D

  7  6  0  0  0  0  0  0  0  0999 V2000
  -28.5750   -7.4640  -32.1890 C   0  0  0  0  0  0  0  0  0  0  0  0
  -27.7510   -6.4440  -32.5620 N   0  0  0  0  0  0  0  0  0  0  0  0
  -28.4250   -8.7170  -32.8010 N   0  0  0  0  0  0  0  0  0  0  0  0
  -28.1390   -5.3530  -31.7400 C   0  0  0  0  0  0  0  0  0  0  0  0
  -27.4090   -4.0810  -31.8270 C   0  0  0  0  0  0  0  0  0  0  0  0
  -26.3540   -4.0060  -32.7060 C   0  0  0  0  0  0  0  0  0  0  0  0
    0.0000    0.0000    0.0000 O   0  0  0  0  0  0  0  0  0  0  0  0
  1  3  1  0
  1  2  2  3
  2  4  1  0
  4  5  1  0
  5  6  2  3
  6  7  1  0
M  END
>  <name>  (30) 
Car Nac Nd0 Car Car Car O_a

>  <indices>  (30) 
[0, 1, 2]

>  <dummy>  (30) 
2

>  <tasks>  (30) 
probe_placing close_aromatic_ring close_aromatic_ring close_aromatic_ring

>  <current_task>  (30) 
close_aromatic_ring

>  <prot_clashes>  (30) 
5

>  <NBS phar>  (30) 
0.12

>  <NBS_non-phar>  (30) 
0.4729970296223958

>  <NBS>  (30) 
0.5929970296223959

>  <source_stage>  (30) 
scored

>  <source_iter>  (30) 
3

>  <source_parent_mol>  (30) 
3

>  <source_scenario>  (30) 
1 0 3

>  <source_rank_in_scored_call>  (30) 
1

>  <source_current_task>  (30) 
close_aromatic_ring

>  <scenario>  (30) 
1 0 3

>  <rotatable_bond_torsions>  (30) 
0,1,3,4;1,3,4,5

>  <reason_to_skip>  (30) 
some_atom_counter_exceeded

$$$$

     RDKit          3D

  7  6  0  0  0  0  0  0  0  0999 V2000
  -28.5750   -7.4640  -32.1890 C   0  0  0  0  0  0  0  0  0  0  0  0
  -27.7510   -6.4440  -32.5620 N   0  0  0  0  0  0  0  0  0  0  0  0
  -28.4250   -8.7170  -32.8010 N   0  0  0  0  0  0  0  0  0  0  0  0
  -28.1390   -5.3530  -31.7400 C   0  0  0  0  0  0  0  0  0  0  0  0
  -27.4090   -4.0810  -31.8270 C   0  0  0  0  0  0  0  0  0  0  0  0
  -26.3540   -4.0060  -32.7060 C   0  0  0  0  0  0  0  0  0  0  0  0
  -24.6370   -3.5559  -32.5072 C   0  0  0  0  0  0  0  0  0  0  0  0
  1  3  1  0
  1  2  2  3
  2  4  1  0
  4  5  1  0
  5  6  2  3
  6  7  1  0
M  END
>  <name>  (31) 
Car Nac Nd0 Car Car Car Car

>  <indices>  (31) 
[0, 1, 2]

>  <dummy>  (31) 
2

>  <tasks>  (31) 
probe_placing close_aromatic_ring close_aromatic_ring close_aromatic_ring

>  <current_task>  (31) 
close_aromatic_ring

>  <prot_clashes>  (31) 
5

>  <NBS phar>  (31) 
0.12

>  <NBS_non-phar>  (31) 
0.4729970296223958

>  <NBS>  (31) 
0.5929970296223959

>  <source_stage>  (31) 
scored

>  <source_iter>  (31) 
3

>  <source_parent_mol>  (31) 
3

>  <source_scenario>  (31) 
1 0 3

>  <source_rank_in_scored_call>  (31) 
1

>  <source_current_task>  (31) 
close_aromatic_ring

>  <scenario>  (31) 
1 0 3

>  <rotatable_bond_torsions>  (31) 
0,1,3,4;1,3,4,5

>  <reason_to_skip>  (31) 
incorrect arom ring closing

$$$$

     RDKit          3D

  7  6  0  0  0  0  0  0  0  0999 V2000
  -28.5750   -7.4640  -32.1890 C   0  0  0  0  0  0  0  0  0  0  0  0
  -27.7510   -6.4440  -32.5620 N   0  0  0  0  0  0  0  0  0  0  0  0
  -28.4250   -8.7170  -32.8010 N   0  0  0  0  0  0  0  0  0  0  0  0
  -28.1390   -5.3530  -31.7400 C   0  0  0  0  0  0  0  0  0  0  0  0
  -27.4090   -4.0810  -31.8270 C   0  0  0  0  0  0  0  0  0  0  0  0
  -26.3540   -4.0060  -32.7060 C   0  0  0  0  0  0  0  0  0  0  0  0
    0.0000    0.0000    0.0000 S   0  0  0  0  0  0  0  0  0  0  0  0
  1  3  1  0
  1  2  2  3
  2  4  1  0
  4  5  1  0
  5  6  2  3
  6  7  1  0
M  END
>  <name>  (32) 
Car Nac Nd0 Car Car Car Sul

>  <indices>  (32) 
[0, 1, 2]

>  <dummy>  (32) 
2

>  <tasks>  (32) 
probe_placing close_aromatic_ring close_aromatic_ring close_aromatic_ring

>  <current_task>  (32) 
close_aromatic_ring

>  <prot_clashes>  (32) 
5

>  <NBS phar>  (32) 
0.12

>  <NBS_non-phar>  (32) 
0.4729970296223958

>  <NBS>  (32) 
0.5929970296223959

>  <source_stage>  (32) 
scored

>  <source_iter>  (32) 
3

>  <source_parent_mol>  (32) 
3

>  <source_scenario>  (32) 
1 0 3

>  <source_rank_in_scored_call>  (32) 
1

>  <source_current_task>  (32) 
close_aromatic_ring

>  <scenario>  (32) 
1 0 3

>  <rotatable_bond_torsions>  (32) 
0,1,3,4;1,3,4,5

>  <reason_to_skip>  (32) 
some_atom_counter_exceeded

$$$$

     RDKit          3D

  7  6  0  0  0  0  0  0  0  0999 V2000
  -28.5750   -7.4640  -32.1890 C   0  0  0  0  0  0  0  0  0  0  0  0
  -27.7510   -6.4440  -32.5620 N   0  0  0  0  0  0  0  0  0  0  0  0
  -28.4250   -8.7170  -32.8010 N   0  0  0  0  0  0  0  0  0  0  0  0
  -28.1390   -5.3530  -31.7400 C   0  0  0  0  0  0  0  0  0  0  0  0
  -27.4090   -4.0810  -31.8270 C   0  0  0  0  0  0  0  0  0  0  0  0
  -26.3540   -4.0060  -32.7060 C   0  0  0  0  0  0  0  0  0  0  0  0
  -26.7533   -3.3755  -33.8814 N   0  0  0  0  0  0  0  0  0  0  0  0
  1  3  1  0
  1  2  2  3
  2  4  1  0
  4  5  1  0
  5  6  2  3
  6  7  1  0
M  END
>  <name>  (33) 
Car Nac Nd0 Car Car Car Nd0

>  <indices>  (33) 
[0, 1, 2]

>  <dummy>  (33) 
2

>  <tasks>  (33) 
probe_placing close_aromatic_ring close_aromatic_ring close_aromatic_ring

>  <current_task>  (33) 
close_aromatic_ring

>  <prot_clashes>  (33) 
5

>  <NBS phar>  (33) 
0.12

>  <NBS_non-phar>  (33) 
0.4729970296223958

>  <NBS>  (33) 
0.5929970296223959

>  <source_stage>  (33) 
scored

>  <source_iter>  (33) 
3

>  <source_parent_mol>  (33) 
3

>  <source_scenario>  (33) 
1 0 3

>  <source_rank_in_scored_call>  (33) 
1

>  <source_current_task>  (33) 
close_aromatic_ring

>  <scenario>  (33) 
1 0 3

>  <rotatable_bond_torsions>  (33) 
0,1,3,4;1,3,4,5

>  <reason_to_skip>  (33) 
incorrect arom ring closing

$$$$

     RDKit          3D

  7  6  0  0  0  0  0  0  0  0999 V2000
  -28.5750   -7.4640  -32.1890 C   0  0  0  0  0  0  0  0  0  0  0  0
  -27.7510   -6.4440  -32.5620 N   0  0  0  0  0  0  0  0  0  0  0  0
  -28.4250   -8.7170  -32.8010 N   0  0  0  0  0  0  0  0  0  0  0  0
  -28.1390   -5.3530  -31.7400 C   0  0  0  0  0  0  0  0  0  0  0  0
  -27.4090   -4.0810  -31.8270 C   0  0  0  0  0  0  0  0  0  0  0  0
  -26.3540   -4.0060  -32.7060 C   0  0  0  0  0  0  0  0  0  0  0  0
    0.0000    0.0000    0.0000 S   0  0  0  0  0  0  0  0  0  0  0  0
  1  3  1  0
  1  2  2  3
  2  4  1  0
  4  5  1  0
  5  6  2  3
  6  7  1  0
M  END
>  <name>  (34) 
Car Nac Nd0 Car Car Car Sul

>  <indices>  (34) 
[0, 1, 2]

>  <dummy>  (34) 
2

>  <tasks>  (34) 
probe_placing close_aromatic_ring close_aromatic_ring close_aromatic_ring

>  <current_task>  (34) 
close_aromatic_ring

>  <prot_clashes>  (34) 
5

>  <NBS phar>  (34) 
0.12

>  <NBS_non-phar>  (34) 
0.4729970296223958

>  <NBS>  (34) 
0.5929970296223959

>  <source_stage>  (34) 
scored

>  <source_iter>  (34) 
3

>  <source_parent_mol>  (34) 
3

>  <source_scenario>  (34) 
1 0 3

>  <source_rank_in_scored_call>  (34) 
1

>  <source_current_task>  (34) 
close_aromatic_ring

>  <scenario>  (34) 
1 0 3

>  <rotatable_bond_torsions>  (34) 
0,1,3,4;1,3,4,5

>  <reason_to_skip>  (34) 
some_atom_counter_exceeded

$$$$

     RDKit          3D

  7  6  0  0  0  0  0  0  0  0999 V2000
  -28.5750   -7.4640  -32.1890 C   0  0  0  0  0  0  0  0  0  0  0  0
  -27.7510   -6.4440  -32.5620 N   0  0  0  0  0  0  0  0  0  0  0  0
  -28.4250   -8.7170  -32.8010 N   0  0  0  0  0  0  0  0  0  0  0  0
  -28.1390   -5.3530  -31.7400 C   0  0  0  0  0  0  0  0  0  0  0  0
  -27.4090   -4.0810  -31.8270 C   0  0  0  0  0  0  0  0  0  0  0  0
  -26.3540   -4.0060  -32.7060 C   0  0  0  0  0  0  0  0  0  0  0  0
    0.0000    0.0000    0.0000 S   0  0  0  0  0  0  0  0  0  0  0  0
  1  3  1  0
  1  2  2  3
  2  4  1  0
  4  5  1  0
  5  6  2  3
  6  7  1  0
M  END
>  <name>  (35) 
Car Nac Nd0 Car Car Car Sul

>  <indices>  (35) 
[0, 1, 2]

>  <dummy>  (35) 
2

>  <tasks>  (35) 
probe_placing close_aromatic_ring close_aromatic_ring close_aromatic_ring

>  <current_task>  (35) 
close_aromatic_ring

>  <prot_clashes>  (35) 
5

>  <NBS phar>  (35) 
0.12

>  <NBS_non-phar>  (35) 
0.4729970296223958

>  <NBS>  (35) 
0.5929970296223959

>  <source_stage>  (35) 
scored

>  <source_iter>  (35) 
3

>  <source_parent_mol>  (35) 
3

>  <source_scenario>  (35) 
1 0 3

>  <source_rank_in_scored_call>  (35) 
1

>  <source_current_task>  (35) 
close_aromatic_ring

>  <scenario>  (35) 
1 0 3

>  <rotatable_bond_torsions>  (35) 
0,1,3,4;1,3,4,5

>  <reason_to_skip>  (35) 
some_atom_counter_exceeded

$$$$

     RDKit          3D

  7  6  0  0  0  0  0  0  0  0999 V2000
  -28.5750   -7.4640  -32.1890 C   0  0  0  0  0  0  0  0  0  0  0  0
  -27.7510   -6.4440  -32.5620 N   0  0  0  0  0  0  0  0  0  0  0  0
  -28.4250   -8.7170  -32.8010 N   0  0  0  0  0  0  0  0  0  0  0  0
  -28.1390   -5.3530  -31.7400 C   0  0  0  0  0  0  0  0  0  0  0  0
  -27.4090   -4.0810  -31.8270 C   0  0  0  0  0  0  0  0  0  0  0  0
  -26.3540   -4.0060  -32.7060 C   0  0  0  0  0  0  0  0  0  0  0  0
    0.0000    0.0000    0.0000 S   0  0  0  0  0  0  0  0  0  0  0  0
  1  3  1  0
  1  2  2  3
  2  4  1  0
  4  5  1  0
  5  6  2  3
  6  7  1  0
M  END
>  <name>  (36) 
Car Nac Nd0 Car Car Car Sul

>  <indices>  (36) 
[0, 1, 2]

>  <dummy>  (36) 
2

>  <tasks>  (36) 
probe_placing close_aromatic_ring close_aromatic_ring close_aromatic_ring

>  <current_task>  (36) 
close_aromatic_ring

>  <prot_clashes>  (36) 
5

>  <NBS phar>  (36) 
0.12

>  <NBS_non-phar>  (36) 
0.4729970296223958

>  <NBS>  (36) 
0.5929970296223959

>  <source_stage>  (36) 
scored

>  <source_iter>  (36) 
3

>  <source_parent_mol>  (36) 
3

>  <source_scenario>  (36) 
1 0 3

>  <source_rank_in_scored_call>  (36) 
1

>  <source_current_task>  (36) 
close_aromatic_ring

>  <scenario>  (36) 
1 0 3

>  <rotatable_bond_torsions>  (36) 
0,1,3,4;1,3,4,5

>  <reason_to_skip>  (36) 
some_atom_counter_exceeded

$$$$

     RDKit          3D

  7  6  0  0  0  0  0  0  0  0999 V2000
  -28.5750   -7.4640  -32.1890 C   0  0  0  0  0  0  0  0  0  0  0  0
  -27.7510   -6.4440  -32.5620 N   0  0  0  0  0  0  0  0  0  0  0  0
  -28.4250   -8.7170  -32.8010 N   0  0  0  0  0  0  0  0  0  0  0  0
  -28.1390   -5.3530  -31.7400 C   0  0  0  0  0  0  0  0  0  0  0  0
  -27.4090   -4.0810  -31.8270 C   0  0  0  0  0  0  0  0  0  0  0  0
  -26.3540   -4.0060  -32.7060 C   0  0  0  0  0  0  0  0  0  0  0  0
  -25.0024   -4.3387  -32.3214 C   0  0  0  0  0  0  0  0  0  0  0  0
  1  3  1  0
  1  2  2  3
  2  4  1  0
  4  5  1  0
  5  6  2  3
  6  7  1  0
M  END
>  <name>  (37) 
Car Nac Nd0 Car Car Car Car

>  <indices>  (37) 
[0, 1, 2]

>  <dummy>  (37) 
2

>  <tasks>  (37) 
probe_placing close_aromatic_ring close_aromatic_ring close_aromatic_ring

>  <current_task>  (37) 
close_aromatic_ring

>  <prot_clashes>  (37) 
5

>  <NBS phar>  (37) 
0.12

>  <NBS_non-phar>  (37) 
0.4729970296223958

>  <NBS>  (37) 
0.5929970296223959

>  <source_stage>  (37) 
scored

>  <source_iter>  (37) 
3

>  <source_parent_mol>  (37) 
3

>  <source_scenario>  (37) 
1 0 3

>  <source_rank_in_scored_call>  (37) 
1

>  <source_current_task>  (37) 
close_aromatic_ring

>  <scenario>  (37) 
1 0 3

>  <rotatable_bond_torsions>  (37) 
0,1,3,4;1,3,4,5

>  <reason_to_skip>  (37) 
incorrect arom ring closing

$$$$

     RDKit          3D

  7  6  0  0  0  0  0  0  0  0999 V2000
  -28.5750   -7.4640  -32.1890 C   0  0  0  0  0  0  0  0  0  0  0  0
  -27.7510   -6.4440  -32.5620 N   0  0  0  0  0  0  0  0  0  0  0  0
  -28.4250   -8.7170  -32.8010 N   0  0  0  0  0  0  0  0  0  0  0  0
  -28.1390   -5.3530  -31.7400 C   0  0  0  0  0  0  0  0  0  0  0  0
  -27.4090   -4.0810  -31.8270 C   0  0  0  0  0  0  0  0  0  0  0  0
  -26.3540   -4.0060  -32.7060 C   0  0  0  0  0  0  0  0  0  0  0  0
  -25.0264   -4.4987  -32.4498 C   0  0  0  0  0  0  0  0  0  0  0  0
  1  3  1  0
  1  2  2  3
  2  4  1  0
  4  5  1  0
  5  6  2  3
  6  7  1  0
M  END
>  <name>  (38) 
Car Nac Nd0 Car Car Car Car

>  <indices>  (38) 
[0, 1, 2]

>  <dummy>  (38) 
2

>  <tasks>  (38) 
probe_placing close_aromatic_ring close_aromatic_ring close_aromatic_ring

>  <current_task>  (38) 
close_aromatic_ring

>  <prot_clashes>  (38) 
5

>  <NBS phar>  (38) 
0.12

>  <NBS_non-phar>  (38) 
0.4729970296223958

>  <NBS>  (38) 
0.5929970296223959

>  <source_stage>  (38) 
scored

>  <source_iter>  (38) 
3

>  <source_parent_mol>  (38) 
3

>  <source_scenario>  (38) 
1 0 3

>  <source_rank_in_scored_call>  (38) 
1

>  <source_current_task>  (38) 
close_aromatic_ring

>  <scenario>  (38) 
1 0 3

>  <rotatable_bond_torsions>  (38) 
0,1,3,4;1,3,4,5

>  <reason_to_skip>  (38) 
incorrect arom ring closing

$$$$

     RDKit          3D

  7  6  0  0  0  0  0  0  0  0999 V2000
  -28.5750   -7.4640  -32.1890 C   0  0  0  0  0  0  0  0  0  0  0  0
  -27.7510   -6.4440  -32.5620 N   0  0  0  0  0  0  0  0  0  0  0  0
  -28.4250   -8.7170  -32.8010 N   0  0  0  0  0  0  0  0  0  0  0  0
  -28.1390   -5.3530  -31.7400 C   0  0  0  0  0  0  0  0  0  0  0  0
  -27.4090   -4.0810  -31.8270 C   0  0  0  0  0  0  0  0  0  0  0  0
  -26.3540   -4.0060  -32.7060 C   0  0  0  0  0  0  0  0  0  0  0  0
  -26.3699   -3.2821  -33.9235 N   0  0  0  0  0  0  0  0  0  0  0  0
  1  3  1  0
  1  2  2  3
  2  4  1  0
  4  5  1  0
  5  6  2  3
  6  7  1  0
M  END
>  <name>  (39) 
Car Nac Nd0 Car Car Car Nd0

>  <indices>  (39) 
[0, 1, 2]

>  <dummy>  (39) 
2

>  <tasks>  (39) 
probe_placing close_aromatic_ring close_aromatic_ring close_aromatic_ring

>  <current_task>  (39) 
close_aromatic_ring

>  <prot_clashes>  (39) 
5

>  <NBS phar>  (39) 
0.12

>  <NBS_non-phar>  (39) 
0.4729970296223958

>  <NBS>  (39) 
0.5929970296223959

>  <source_stage>  (39) 
scored

>  <source_iter>  (39) 
3

>  <source_parent_mol>  (39) 
3

>  <source_scenario>  (39) 
1 0 3

>  <source_rank_in_scored_call>  (39) 
1

>  <source_current_task>  (39) 
close_aromatic_ring

>  <scenario>  (39) 
1 0 3

>  <rotatable_bond_torsions>  (39) 
0,1,3,4;1,3,4,5

>  <reason_to_skip>  (39) 
incorrect arom ring closing

$$$$

     RDKit          3D

  7  6  0  0  0  0  0  0  0  0999 V2000
  -28.5750   -7.4640  -32.1890 C   0  0  0  0  0  0  0  0  0  0  0  0
  -27.7510   -6.4440  -32.5620 N   0  0  0  0  0  0  0  0  0  0  0  0
  -28.4250   -8.7170  -32.8010 N   0  0  0  0  0  0  0  0  0  0  0  0
  -28.1390   -5.3530  -31.7400 C   0  0  0  0  0  0  0  0  0  0  0  0
  -27.4090   -4.0810  -31.8270 C   0  0  0  0  0  0  0  0  0  0  0  0
  -26.3540   -4.0060  -32.7060 C   0  0  0  0  0  0  0  0  0  0  0  0
  -26.2741   -3.1806  -33.8644 N   0  0  0  0  0  0  0  0  0  0  0  0
  1  3  1  0
  1  2  2  3
  2  4  1  0
  4  5  1  0
  5  6  2  3
  6  7  1  0
M  END
>  <name>  (40) 
Car Nac Nd0 Car Car Car Nac

>  <indices>  (40) 
[0, 1, 2]

>  <dummy>  (40) 
2

>  <tasks>  (40) 
probe_placing close_aromatic_ring close_aromatic_ring close_aromatic_ring

>  <current_task>  (40) 
close_aromatic_ring

>  <prot_clashes>  (40) 
5

>  <NBS phar>  (40) 
0.12

>  <NBS_non-phar>  (40) 
0.4729970296223958

>  <NBS>  (40) 
0.5929970296223959

>  <source_stage>  (40) 
scored

>  <source_iter>  (40) 
3

>  <source_parent_mol>  (40) 
3

>  <source_scenario>  (40) 
1 0 3

>  <source_rank_in_scored_call>  (40) 
1

>  <source_current_task>  (40) 
close_aromatic_ring

>  <scenario>  (40) 
1 0 3

>  <rotatable_bond_torsions>  (40) 
0,1,3,4;1,3,4,5

>  <reason_to_skip>  (40) 
incorrect arom ring closing

$$$$

     RDKit          3D

  7  6  0  0  0  0  0  0  0  0999 V2000
  -28.5750   -7.4640  -32.1890 C   0  0  0  0  0  0  0  0  0  0  0  0
  -27.7510   -6.4440  -32.5620 N   0  0  0  0  0  0  0  0  0  0  0  0
  -28.4250   -8.7170  -32.8010 N   0  0  0  0  0  0  0  0  0  0  0  0
  -28.1390   -5.3530  -31.7400 C   0  0  0  0  0  0  0  0  0  0  0  0
  -27.4090   -4.0810  -31.8270 C   0  0  0  0  0  0  0  0  0  0  0  0
  -26.3540   -4.0060  -32.7060 C   0  0  0  0  0  0  0  0  0  0  0  0
    0.0000    0.0000    0.0000 S   0  0  0  0  0  0  0  0  0  0  0  0
  1  3  1  0
  1  2  2  3
  2  4  1  0
  4  5  1  0
  5  6  2  3
  6  7  1  0
M  END
>  <name>  (41) 
Car Nac Nd0 Car Car Car Sul

>  <indices>  (41) 
[0, 1, 2]

>  <dummy>  (41) 
2

>  <tasks>  (41) 
probe_placing close_aromatic_ring close_aromatic_ring close_aromatic_ring

>  <current_task>  (41) 
close_aromatic_ring

>  <prot_clashes>  (41) 
5

>  <NBS phar>  (41) 
0.12

>  <NBS_non-phar>  (41) 
0.4729970296223958

>  <NBS>  (41) 
0.5929970296223959

>  <source_stage>  (41) 
scored

>  <source_iter>  (41) 
3

>  <source_parent_mol>  (41) 
3

>  <source_scenario>  (41) 
1 0 3

>  <source_rank_in_scored_call>  (41) 
1

>  <source_current_task>  (41) 
close_aromatic_ring

>  <scenario>  (41) 
1 0 3

>  <rotatable_bond_torsions>  (41) 
0,1,3,4;1,3,4,5

>  <reason_to_skip>  (41) 
some_atom_counter_exceeded

$$$$

     RDKit          3D

  7  6  0  0  0  0  0  0  0  0999 V2000
  -28.5750   -7.4640  -32.1890 C   0  0  0  0  0  0  0  0  0  0  0  0
  -27.7510   -6.4440  -32.5620 N   0  0  0  0  0  0  0  0  0  0  0  0
  -28.4250   -8.7170  -32.8010 N   0  0  0  0  0  0  0  0  0  0  0  0
  -28.1390   -5.3530  -31.7400 C   0  0  0  0  0  0  0  0  0  0  0  0
  -27.4090   -4.0810  -31.8270 C   0  0  0  0  0  0  0  0  0  0  0  0
  -26.3540   -4.0060  -32.7060 C   0  0  0  0  0  0  0  0  0  0  0  0
    0.0000    0.0000    0.0000 S   0  0  0  0  0  0  0  0  0  0  0  0
  1  3  1  0
  1  2  2  3
  2  4  1  0
  4  5  1  0
  5  6  2  3
  6  7  1  0
M  END
>  <name>  (42) 
Car Nac Nd0 Car Car Car Sul

>  <indices>  (42) 
[0, 1, 2]

>  <dummy>  (42) 
2

>  <tasks>  (42) 
probe_placing close_aromatic_ring close_aromatic_ring close_aromatic_ring

>  <current_task>  (42) 
close_aromatic_ring

>  <prot_clashes>  (42) 
5

>  <NBS phar>  (42) 
0.12

>  <NBS_non-phar>  (42) 
0.4729970296223958

>  <NBS>  (42) 
0.5929970296223959

>  <source_stage>  (42) 
scored

>  <source_iter>  (42) 
3

>  <source_parent_mol>  (42) 
3

>  <source_scenario>  (42) 
1 0 3

>  <source_rank_in_scored_call>  (42) 
1

>  <source_current_task>  (42) 
close_aromatic_ring

>  <scenario>  (42) 
1 0 3

>  <rotatable_bond_torsions>  (42) 
0,1,3,4;1,3,4,5

>  <reason_to_skip>  (42) 
some_atom_counter_exceeded

$$$$

     RDKit          3D

  7  6  0  0  0  0  0  0  0  0999 V2000
  -28.5750   -7.4640  -32.1890 C   0  0  0  0  0  0  0  0  0  0  0  0
  -27.7510   -6.4440  -32.5620 N   0  0  0  0  0  0  0  0  0  0  0  0
  -28.4250   -8.7170  -32.8010 N   0  0  0  0  0  0  0  0  0  0  0  0
  -28.1390   -5.3530  -31.7400 C   0  0  0  0  0  0  0  0  0  0  0  0
  -27.4090   -4.0810  -31.8270 C   0  0  0  0  0  0  0  0  0  0  0  0
  -26.3540   -4.0060  -32.7060 C   0  0  0  0  0  0  0  0  0  0  0  0
  -25.1410   -3.8440  -32.2495 N   0  0  0  0  0  0  0  0  0  0  0  0
  1  3  1  0
  1  2  2  3
  2  4  1  0
  4  5  1  0
  5  6  2  3
  6  7  1  0
M  END
>  <name>  (43) 
Car Nac Nd0 Car Car Car Nd0

>  <indices>  (43) 
[0, 1, 2]

>  <dummy>  (43) 
2

>  <tasks>  (43) 
probe_placing close_aromatic_ring close_aromatic_ring close_aromatic_ring

>  <current_task>  (43) 
close_aromatic_ring

>  <prot_clashes>  (43) 
5

>  <NBS phar>  (43) 
0.12

>  <NBS_non-phar>  (43) 
0.4729970296223958

>  <NBS>  (43) 
0.5929970296223959

>  <source_stage>  (43) 
scored

>  <source_iter>  (43) 
3

>  <source_parent_mol>  (43) 
3

>  <source_scenario>  (43) 
1 0 3

>  <source_rank_in_scored_call>  (43) 
1

>  <source_current_task>  (43) 
close_aromatic_ring

>  <scenario>  (43) 
1 0 3

>  <rotatable_bond_torsions>  (43) 
0,1,3,4;1,3,4,5

>  <reason_to_skip>  (43) 
incorrect arom ring closing

$$$$

     RDKit          3D

  7  6  0  0  0  0  0  0  0  0999 V2000
  -28.5750   -7.4640  -32.1890 C   0  0  0  0  0  0  0  0  0  0  0  0
  -27.7510   -6.4440  -32.5620 N   0  0  0  0  0  0  0  0  0  0  0  0
  -28.4250   -8.7170  -32.8010 N   0  0  0  0  0  0  0  0  0  0  0  0
  -28.1390   -5.3530  -31.7400 C   0  0  0  0  0  0  0  0  0  0  0  0
  -27.4090   -4.0810  -31.8270 C   0  0  0  0  0  0  0  0  0  0  0  0
  -26.3540   -4.0060  -32.7060 C   0  0  0  0  0  0  0  0  0  0  0  0
    0.0000    0.0000    0.0000 O   0  0  0  0  0  0  0  0  0  0  0  0
  1  3  1  0
  1  2  2  3
  2  4  1  0
  4  5  1  0
  5  6  2  3
  6  7  1  0
M  END
>  <name>  (44) 
Car Nac Nd0 Car Car Car O_a

>  <indices>  (44) 
[0, 1, 2]

>  <dummy>  (44) 
2

>  <tasks>  (44) 
probe_placing close_aromatic_ring close_aromatic_ring close_aromatic_ring

>  <current_task>  (44) 
close_aromatic_ring

>  <prot_clashes>  (44) 
5

>  <NBS phar>  (44) 
0.12

>  <NBS_non-phar>  (44) 
0.4729970296223958

>  <NBS>  (44) 
0.5929970296223959

>  <source_stage>  (44) 
scored

>  <source_iter>  (44) 
3

>  <source_parent_mol>  (44) 
3

>  <source_scenario>  (44) 
1 0 3

>  <source_rank_in_scored_call>  (44) 
1

>  <source_current_task>  (44) 
close_aromatic_ring

>  <scenario>  (44) 
1 0 3

>  <rotatable_bond_torsions>  (44) 
0,1,3,4;1,3,4,5

>  <reason_to_skip>  (44) 
some_atom_counter_exceeded

$$$$

     RDKit          3D

  7  6  0  0  0  0  0  0  0  0999 V2000
  -28.5750   -7.4640  -32.1890 C   0  0  0  0  0  0  0  0  0  0  0  0
  -27.7510   -6.4440  -32.5620 N   0  0  0  0  0  0  0  0  0  0  0  0
  -28.4250   -8.7170  -32.8010 N   0  0  0  0  0  0  0  0  0  0  0  0
  -28.1390   -5.3530  -31.7400 C   0  0  0  0  0  0  0  0  0  0  0  0
  -27.4090   -4.0810  -31.8270 C   0  0  0  0  0  0  0  0  0  0  0  0
  -26.3540   -4.0060  -32.7060 C   0  0  0  0  0  0  0  0  0  0  0  0
    0.0000    0.0000    0.0000 O   0  0  0  0  0  0  0  0  0  0  0  0
  1  3  1  0
  1  2  2  3
  2  4  1  0
  4  5  1  0
  5  6  2  3
  6  7  1  0
M  END
>  <name>  (45) 
Car Nac Nd0 Car Car Car O_a

>  <indices>  (45) 
[0, 1, 2]

>  <dummy>  (45) 
2

>  <tasks>  (45) 
probe_placing close_aromatic_ring close_aromatic_ring close_aromatic_ring

>  <current_task>  (45) 
close_aromatic_ring

>  <prot_clashes>  (45) 
5

>  <NBS phar>  (45) 
0.12

>  <NBS_non-phar>  (45) 
0.4729970296223958

>  <NBS>  (45) 
0.5929970296223959

>  <source_stage>  (45) 
scored

>  <source_iter>  (45) 
3

>  <source_parent_mol>  (45) 
3

>  <source_scenario>  (45) 
1 0 3

>  <source_rank_in_scored_call>  (45) 
1

>  <source_current_task>  (45) 
close_aromatic_ring

>  <scenario>  (45) 
1 0 3

>  <rotatable_bond_torsions>  (45) 
0,1,3,4;1,3,4,5

>  <reason_to_skip>  (45) 
some_atom_counter_exceeded

$$$$

     RDKit          3D

  7  6  0  0  0  0  0  0  0  0999 V2000
  -28.5750   -7.4640  -32.1890 C   0  0  0  0  0  0  0  0  0  0  0  0
  -27.7510   -6.4440  -32.5620 N   0  0  0  0  0  0  0  0  0  0  0  0
  -28.4250   -8.7170  -32.8010 N   0  0  0  0  0  0  0  0  0  0  0  0
  -28.1390   -5.3530  -31.7400 C   0  0  0  0  0  0  0  0  0  0  0  0
  -27.4090   -4.0810  -31.8270 C   0  0  0  0  0  0  0  0  0  0  0  0
  -26.3540   -4.0060  -32.7060 C   0  0  0  0  0  0  0  0  0  0  0  0
  -24.9512   -3.8804  -32.1965 C   0  0  0  0  0  0  0  0  0  0  0  0
  1  3  1  0
  1  2  2  3
  2  4  1  0
  4  5  1  0
  5  6  2  3
  6  7  1  0
M  END
>  <name>  (46) 
Car Nac Nd0 Car Car Car Car

>  <indices>  (46) 
[0, 1, 2]

>  <dummy>  (46) 
2

>  <tasks>  (46) 
probe_placing close_aromatic_ring close_aromatic_ring close_aromatic_ring

>  <current_task>  (46) 
close_aromatic_ring

>  <prot_clashes>  (46) 
5

>  <NBS phar>  (46) 
0.12

>  <NBS_non-phar>  (46) 
0.4729970296223958

>  <NBS>  (46) 
0.5929970296223959

>  <source_stage>  (46) 
scored

>  <source_iter>  (46) 
3

>  <source_parent_mol>  (46) 
3

>  <source_scenario>  (46) 
1 0 3

>  <source_rank_in_scored_call>  (46) 
1

>  <source_current_task>  (46) 
close_aromatic_ring

>  <scenario>  (46) 
1 0 3

>  <rotatable_bond_torsions>  (46) 
0,1,3,4;1,3,4,5

>  <reason_to_skip>  (46) 
incorrect arom ring closing

$$$$

     RDKit          3D

  7  6  0  0  0  0  0  0  0  0999 V2000
  -28.5750   -7.4640  -32.1890 C   0  0  0  0  0  0  0  0  0  0  0  0
  -27.7510   -6.4440  -32.5620 N   0  0  0  0  0  0  0  0  0  0  0  0
  -28.4250   -8.7170  -32.8010 N   0  0  0  0  0  0  0  0  0  0  0  0
  -28.1390   -5.3530  -31.7400 C   0  0  0  0  0  0  0  0  0  0  0  0
  -27.4090   -4.0810  -31.8270 C   0  0  0  0  0  0  0  0  0  0  0  0
  -26.3540   -4.0060  -32.7060 C   0  0  0  0  0  0  0  0  0  0  0  0
    0.0000    0.0000    0.0000 S   0  0  0  0  0  0  0  0  0  0  0  0
  1  3  1  0
  1  2  2  3
  2  4  1  0
  4  5  1  0
  5  6  2  3
  6  7  1  0
M  END
>  <name>  (47) 
Car Nac Nd0 Car Car Car Sul

>  <indices>  (47) 
[0, 1, 2]

>  <dummy>  (47) 
2

>  <tasks>  (47) 
probe_placing close_aromatic_ring close_aromatic_ring close_aromatic_ring

>  <current_task>  (47) 
close_aromatic_ring

>  <prot_clashes>  (47) 
5

>  <NBS phar>  (47) 
0.12

>  <NBS_non-phar>  (47) 
0.4729970296223958

>  <NBS>  (47) 
0.5929970296223959

>  <source_stage>  (47) 
scored

>  <source_iter>  (47) 
3

>  <source_parent_mol>  (47) 
3

>  <source_scenario>  (47) 
1 0 3

>  <source_rank_in_scored_call>  (47) 
1

>  <source_current_task>  (47) 
close_aromatic_ring

>  <scenario>  (47) 
1 0 3

>  <rotatable_bond_torsions>  (47) 
0,1,3,4;1,3,4,5

>  <reason_to_skip>  (47) 
some_atom_counter_exceeded

$$$$

     RDKit          3D

  7  6  0  0  0  0  0  0  0  0999 V2000
  -28.5750   -7.4640  -32.1890 C   0  0  0  0  0  0  0  0  0  0  0  0
  -27.7510   -6.4440  -32.5620 N   0  0  0  0  0  0  0  0  0  0  0  0
  -28.4250   -8.7170  -32.8010 N   0  0  0  0  0  0  0  0  0  0  0  0
  -28.1390   -5.3530  -31.7400 C   0  0  0  0  0  0  0  0  0  0  0  0
  -27.4090   -4.0810  -31.8270 C   0  0  0  0  0  0  0  0  0  0  0  0
  -26.3540   -4.0060  -32.7060 C   0  0  0  0  0  0  0  0  0  0  0  0
  -26.5168   -2.8346  -33.6606 C   0  0  0  0  0  0  0  0  0  0  0  0
  1  3  1  0
  1  2  2  3
  2  4  1  0
  4  5  1  0
  5  6  2  3
  6  7  1  0
M  END
>  <name>  (48) 
Car Nac Nd0 Car Car Car Car

>  <indices>  (48) 
[0, 1, 2]

>  <dummy>  (48) 
2

>  <tasks>  (48) 
probe_placing close_aromatic_ring close_aromatic_ring close_aromatic_ring

>  <current_task>  (48) 
close_aromatic_ring

>  <prot_clashes>  (48) 
5

>  <NBS phar>  (48) 
0.12

>  <NBS_non-phar>  (48) 
0.4729970296223958

>  <NBS>  (48) 
0.5929970296223959

>  <source_stage>  (48) 
scored

>  <source_iter>  (48) 
3

>  <source_parent_mol>  (48) 
3

>  <source_scenario>  (48) 
1 0 3

>  <source_rank_in_scored_call>  (48) 
1

>  <source_current_task>  (48) 
close_aromatic_ring

>  <scenario>  (48) 
1 0 3

>  <rotatable_bond_torsions>  (48) 
0,1,3,4;1,3,4,5

>  <reason_to_skip>  (48) 
incorrect arom ring closing

$$$$

     RDKit          3D

  7  6  0  0  0  0  0  0  0  0999 V2000
  -28.5750   -7.4640  -32.1890 C   0  0  0  0  0  0  0  0  0  0  0  0
  -27.7510   -6.4440  -32.5620 N   0  0  0  0  0  0  0  0  0  0  0  0
  -28.4250   -8.7170  -32.8010 N   0  0  0  0  0  0  0  0  0  0  0  0
  -28.1390   -5.3530  -31.7400 C   0  0  0  0  0  0  0  0  0  0  0  0
  -27.4090   -4.0810  -31.8270 C   0  0  0  0  0  0  0  0  0  0  0  0
  -26.3540   -4.0060  -32.7060 C   0  0  0  0  0  0  0  0  0  0  0  0
    0.0000    0.0000    0.0000 S   0  0  0  0  0  0  0  0  0  0  0  0
  1  3  1  0
  1  2  2  3
  2  4  1  0
  4  5  1  0
  5  6  2  3
  6  7  1  0
M  END
>  <name>  (49) 
Car Nac Nd0 Car Car Car Sul

>  <indices>  (49) 
[0, 1, 2]

>  <dummy>  (49) 
2

>  <tasks>  (49) 
probe_placing close_aromatic_ring close_aromatic_ring close_aromatic_ring

>  <current_task>  (49) 
close_aromatic_ring

>  <prot_clashes>  (49) 
5

>  <NBS phar>  (49) 
0.12

>  <NBS_non-phar>  (49) 
0.4729970296223958

>  <NBS>  (49) 
0.5929970296223959

>  <source_stage>  (49) 
scored

>  <source_iter>  (49) 
3

>  <source_parent_mol>  (49) 
3

>  <source_scenario>  (49) 
1 0 3

>  <source_rank_in_scored_call>  (49) 
1

>  <source_current_task>  (49) 
close_aromatic_ring

>  <scenario>  (49) 
1 0 3

>  <rotatable_bond_torsions>  (49) 
0,1,3,4;1,3,4,5

>  <reason_to_skip>  (49) 
some_atom_counter_exceeded

$$$$

     RDKit          3D

  7  6  0  0  0  0  0  0  0  0999 V2000
  -28.5750   -7.4640  -32.1890 C   0  0  0  0  0  0  0  0  0  0  0  0
  -27.7510   -6.4440  -32.5620 N   0  0  0  0  0  0  0  0  0  0  0  0
  -28.4250   -8.7170  -32.8010 N   0  0  0  0  0  0  0  0  0  0  0  0
  -28.1390   -5.3530  -31.7400 C   0  0  0  0  0  0  0  0  0  0  0  0
  -27.4090   -4.0810  -31.8270 C   0  0  0  0  0  0  0  0  0  0  0  0
  -26.3540   -4.0060  -32.7060 C   0  0  0  0  0  0  0  0  0  0  0  0
    0.0000    0.0000    0.0000 O   0  0  0  0  0  0  0  0  0  0  0  0
  1  3  1  0
  1  2  2  3
  2  4  1  0
  4  5  1  0
  5  6  2  3
  6  7  1  0
M  END
>  <name>  (50) 
Car Nac Nd0 Car Car Car O_a

>  <indices>  (50) 
[0, 1, 2]

>  <dummy>  (50) 
2

>  <tasks>  (50) 
probe_placing close_aromatic_ring close_aromatic_ring close_aromatic_ring

>  <current_task>  (50) 
close_aromatic_ring

>  <prot_clashes>  (50) 
5

>  <NBS phar>  (50) 
0.12

>  <NBS_non-phar>  (50) 
0.4729970296223958

>  <NBS>  (50) 
0.5929970296223959

>  <source_stage>  (50) 
scored

>  <source_iter>  (50) 
3

>  <source_parent_mol>  (50) 
3

>  <source_scenario>  (50) 
1 0 3

>  <source_rank_in_scored_call>  (50) 
1

>  <source_current_task>  (50) 
close_aromatic_ring

>  <scenario>  (50) 
1 0 3

>  <rotatable_bond_torsions>  (50) 
0,1,3,4;1,3,4,5

>  <reason_to_skip>  (50) 
some_atom_counter_exceeded

$$$$

     RDKit          3D

  7  6  0  0  0  0  0  0  0  0999 V2000
  -28.5750   -7.4640  -32.1890 C   0  0  0  0  0  0  0  0  0  0  0  0
  -27.7510   -6.4440  -32.5620 N   0  0  0  0  0  0  0  0  0  0  0  0
  -28.4250   -8.7170  -32.8010 N   0  0  0  0  0  0  0  0  0  0  0  0
  -28.1390   -5.3530  -31.7400 C   0  0  0  0  0  0  0  0  0  0  0  0
  -27.4090   -4.0810  -31.8270 C   0  0  0  0  0  0  0  0  0  0  0  0
  -26.3540   -4.0060  -32.7060 C   0  0  0  0  0  0  0  0  0  0  0  0
  -25.1055   -3.7397  -32.3205 N   0  0  0  0  0  0  0  0  0  0  0  0
  1  3  1  0
  1  2  2  3
  2  4  1  0
  4  5  1  0
  5  6  2  3
  6  7  1  0
M  END
>  <name>  (51) 
Car Nac Nd0 Car Car Car Nd0

>  <indices>  (51) 
[0, 1, 2]

>  <dummy>  (51) 
2

>  <tasks>  (51) 
probe_placing close_aromatic_ring close_aromatic_ring close_aromatic_ring

>  <current_task>  (51) 
close_aromatic_ring

>  <prot_clashes>  (51) 
5

>  <NBS phar>  (51) 
0.12

>  <NBS_non-phar>  (51) 
0.4729970296223958

>  <NBS>  (51) 
0.5929970296223959

>  <source_stage>  (51) 
scored

>  <source_iter>  (51) 
3

>  <source_parent_mol>  (51) 
3

>  <source_scenario>  (51) 
1 0 3

>  <source_rank_in_scored_call>  (51) 
1

>  <source_current_task>  (51) 
close_aromatic_ring

>  <scenario>  (51) 
1 0 3

>  <rotatable_bond_torsions>  (51) 
0,1,3,4;1,3,4,5

>  <reason_to_skip>  (51) 
incorrect arom ring closing

$$$$

     RDKit          3D

  7  6  0  0  0  0  0  0  0  0999 V2000
  -28.5750   -7.4640  -32.1890 C   0  0  0  0  0  0  0  0  0  0  0  0
  -27.7510   -6.4440  -32.5620 N   0  0  0  0  0  0  0  0  0  0  0  0
  -28.4250   -8.7170  -32.8010 N   0  0  0  0  0  0  0  0  0  0  0  0
  -28.1390   -5.3530  -31.7400 C   0  0  0  0  0  0  0  0  0  0  0  0
  -27.4090   -4.0810  -31.8270 C   0  0  0  0  0  0  0  0  0  0  0  0
  -26.3540   -4.0060  -32.7060 C   0  0  0  0  0  0  0  0  0  0  0  0
    0.0000    0.0000    0.0000 S   0  0  0  0  0  0  0  0  0  0  0  0
  1  3  1  0
  1  2  2  3
  2  4  1  0
  4  5  1  0
  5  6  2  3
  6  7  1  0
M  END
>  <name>  (52) 
Car Nac Nd0 Car Car Car Sul

>  <indices>  (52) 
[0, 1, 2]

>  <dummy>  (52) 
2

>  <tasks>  (52) 
probe_placing close_aromatic_ring close_aromatic_ring close_aromatic_ring

>  <current_task>  (52) 
close_aromatic_ring

>  <prot_clashes>  (52) 
5

>  <NBS phar>  (52) 
0.12

>  <NBS_non-phar>  (52) 
0.4729970296223958

>  <NBS>  (52) 
0.5929970296223959

>  <source_stage>  (52) 
scored

>  <source_iter>  (52) 
3

>  <source_parent_mol>  (52) 
3

>  <source_scenario>  (52) 
1 0 3

>  <source_rank_in_scored_call>  (52) 
1

>  <source_current_task>  (52) 
close_aromatic_ring

>  <scenario>  (52) 
1 0 3

>  <rotatable_bond_torsions>  (52) 
0,1,3,4;1,3,4,5

>  <reason_to_skip>  (52) 
some_atom_counter_exceeded

$$$$

     RDKit          3D

  7  6  0  0  0  0  0  0  0  0999 V2000
  -28.5750   -7.4640  -32.1890 C   0  0  0  0  0  0  0  0  0  0  0  0
  -27.7510   -6.4440  -32.5620 N   0  0  0  0  0  0  0  0  0  0  0  0
  -28.4250   -8.7170  -32.8010 N   0  0  0  0  0  0  0  0  0  0  0  0
  -28.1390   -5.3530  -31.7400 C   0  0  0  0  0  0  0  0  0  0  0  0
  -27.4090   -4.0810  -31.8270 C   0  0  0  0  0  0  0  0  0  0  0  0
  -26.3540   -4.0060  -32.7060 C   0  0  0  0  0  0  0  0  0  0  0  0
  -25.0299   -4.1994  -31.9515 N   0  0  0  0  0  0  0  0  0  0  0  0
  1  3  1  0
  1  2  2  3
  2  4  1  0
  4  5  1  0
  5  6  2  3
  6  7  1  0
M  END
>  <name>  (53) 
Car Nac Nd0 Car Car Car Nd0

>  <indices>  (53) 
[0, 1, 2]

>  <dummy>  (53) 
2

>  <tasks>  (53) 
probe_placing close_aromatic_ring close_aromatic_ring close_aromatic_ring

>  <current_task>  (53) 
close_aromatic_ring

>  <prot_clashes>  (53) 
5

>  <NBS phar>  (53) 
0.12

>  <NBS_non-phar>  (53) 
0.4729970296223958

>  <NBS>  (53) 
0.5929970296223959

>  <source_stage>  (53) 
scored

>  <source_iter>  (53) 
3

>  <source_parent_mol>  (53) 
3

>  <source_scenario>  (53) 
1 0 3

>  <source_rank_in_scored_call>  (53) 
1

>  <source_current_task>  (53) 
close_aromatic_ring

>  <scenario>  (53) 
1 0 3

>  <rotatable_bond_torsions>  (53) 
0,1,3,4;1,3,4,5

>  <reason_to_skip>  (53) 
incorrect arom ring closing

$$$$

     RDKit          3D

  7  6  0  0  0  0  0  0  0  0999 V2000
  -28.5750   -7.4640  -32.1890 C   0  0  0  0  0  0  0  0  0  0  0  0
  -27.7510   -6.4440  -32.5620 N   0  0  0  0  0  0  0  0  0  0  0  0
  -28.4250   -8.7170  -32.8010 N   0  0  0  0  0  0  0  0  0  0  0  0
  -28.1390   -5.3530  -31.7400 C   0  0  0  0  0  0  0  0  0  0  0  0
  -27.4090   -4.0810  -31.8270 C   0  0  0  0  0  0  0  0  0  0  0  0
  -26.3540   -4.0060  -32.7060 C   0  0  0  0  0  0  0  0  0  0  0  0
    0.0000    0.0000    0.0000 O   0  0  0  0  0  0  0  0  0  0  0  0
  1  3  1  0
  1  2  2  3
  2  4  1  0
  4  5  1  0
  5  6  2  3
  6  7  1  0
M  END
>  <name>  (54) 
Car Nac Nd0 Car Car Car O_a

>  <indices>  (54) 
[0, 1, 2]

>  <dummy>  (54) 
2

>  <tasks>  (54) 
probe_placing close_aromatic_ring close_aromatic_ring close_aromatic_ring

>  <current_task>  (54) 
close_aromatic_ring

>  <prot_clashes>  (54) 
5

>  <NBS phar>  (54) 
0.12

>  <NBS_non-phar>  (54) 
0.4729970296223958

>  <NBS>  (54) 
0.5929970296223959

>  <source_stage>  (54) 
scored

>  <source_iter>  (54) 
3

>  <source_parent_mol>  (54) 
3

>  <source_scenario>  (54) 
1 0 3

>  <source_rank_in_scored_call>  (54) 
1

>  <source_current_task>  (54) 
close_aromatic_ring

>  <scenario>  (54) 
1 0 3

>  <rotatable_bond_torsions>  (54) 
0,1,3,4;1,3,4,5

>  <reason_to_skip>  (54) 
some_atom_counter_exceeded

$$$$

     RDKit          3D

  7  6  0  0  0  0  0  0  0  0999 V2000
  -28.5750   -7.4640  -32.1890 C   0  0  0  0  0  0  0  0  0  0  0  0
  -27.7510   -6.4440  -32.5620 N   0  0  0  0  0  0  0  0  0  0  0  0
  -28.4250   -8.7170  -32.8010 N   0  0  0  0  0  0  0  0  0  0  0  0
  -28.1390   -5.3530  -31.7400 C   0  0  0  0  0  0  0  0  0  0  0  0
  -27.4090   -4.0810  -31.8270 C   0  0  0  0  0  0  0  0  0  0  0  0
  -26.3540   -4.0060  -32.7060 C   0  0  0  0  0  0  0  0  0  0  0  0
    0.0000    0.0000    0.0000 O   0  0  0  0  0  0  0  0  0  0  0  0
  1  3  1  0
  1  2  2  3
  2  4  1  0
  4  5  1  0
  5  6  2  3
  6  7  1  0
M  END
>  <name>  (55) 
Car Nac Nd0 Car Car Car O_a

>  <indices>  (55) 
[0, 1, 2]

>  <dummy>  (55) 
2

>  <tasks>  (55) 
probe_placing close_aromatic_ring close_aromatic_ring close_aromatic_ring

>  <current_task>  (55) 
close_aromatic_ring

>  <prot_clashes>  (55) 
5

>  <NBS phar>  (55) 
0.12

>  <NBS_non-phar>  (55) 
0.4729970296223958

>  <NBS>  (55) 
0.5929970296223959

>  <source_stage>  (55) 
scored

>  <source_iter>  (55) 
3

>  <source_parent_mol>  (55) 
3

>  <source_scenario>  (55) 
1 0 3

>  <source_rank_in_scored_call>  (55) 
1

>  <source_current_task>  (55) 
close_aromatic_ring

>  <scenario>  (55) 
1 0 3

>  <rotatable_bond_torsions>  (55) 
0,1,3,4;1,3,4,5

>  <reason_to_skip>  (55) 
some_atom_counter_exceeded

$$$$

     RDKit          3D

  7  6  0  0  0  0  0  0  0  0999 V2000
  -28.5750   -7.4640  -32.1890 C   0  0  0  0  0  0  0  0  0  0  0  0
  -27.7510   -6.4440  -32.5620 N   0  0  0  0  0  0  0  0  0  0  0  0
  -28.4250   -8.7170  -32.8010 N   0  0  0  0  0  0  0  0  0  0  0  0
  -28.1390   -5.3530  -31.7400 C   0  0  0  0  0  0  0  0  0  0  0  0
  -27.4090   -4.0810  -31.8270 C   0  0  0  0  0  0  0  0  0  0  0  0
  -26.3540   -4.0060  -32.7060 C   0  0  0  0  0  0  0  0  0  0  0  0
  -25.9201   -5.1332  -33.6108 C   0  0  0  0  0  0  0  0  0  0  0  0
  1  3  1  0
  1  2  2  3
  2  4  1  0
  4  5  1  0
  5  6  2  3
  6  7  1  0
M  END
>  <name>  (56) 
Car Nac Nd0 Car Car Car Car

>  <indices>  (56) 
[0, 1, 2]

>  <dummy>  (56) 
2

>  <tasks>  (56) 
probe_placing close_aromatic_ring close_aromatic_ring close_aromatic_ring

>  <current_task>  (56) 
close_aromatic_ring

>  <prot_clashes>  (56) 
5

>  <NBS phar>  (56) 
0.12

>  <NBS_non-phar>  (56) 
0.4729970296223958

>  <NBS>  (56) 
0.5929970296223959

>  <source_stage>  (56) 
scored

>  <source_iter>  (56) 
3

>  <source_parent_mol>  (56) 
3

>  <source_scenario>  (56) 
1 0 3

>  <source_rank_in_scored_call>  (56) 
1

>  <source_current_task>  (56) 
close_aromatic_ring

>  <scenario>  (56) 
1 0 3

>  <rotatable_bond_torsions>  (56) 
0,1,3,4;1,3,4,5

>  <reason_to_skip>  (56) 
subgraph mismatch

$$$$

     RDKit          3D

  7  6  0  0  0  0  0  0  0  0999 V2000
  -28.5750   -7.4640  -32.1890 C   0  0  0  0  0  0  0  0  0  0  0  0
  -27.7510   -6.4440  -32.5620 N   0  0  0  0  0  0  0  0  0  0  0  0
  -28.4250   -8.7170  -32.8010 N   0  0  0  0  0  0  0  0  0  0  0  0
  -28.1390   -5.3530  -31.7400 C   0  0  0  0  0  0  0  0  0  0  0  0
  -27.4090   -4.0810  -31.8270 C   0  0  0  0  0  0  0  0  0  0  0  0
  -26.3540   -4.0060  -32.7060 C   0  0  0  0  0  0  0  0  0  0  0  0
  -25.9327   -5.0365  -33.5050 N   0  0  0  0  0  0  0  0  0  0  0  0
  1  3  1  0
  1  2  2  3
  2  4  1  0
  4  5  1  0
  5  6  2  3
  6  7  1  0
M  END
>  <name>  (57) 
Car Nac Nd0 Car Car Car Nd0

>  <indices>  (57) 
[0, 1, 2]

>  <dummy>  (57) 
2

>  <tasks>  (57) 
probe_placing close_aromatic_ring close_aromatic_ring close_aromatic_ring

>  <current_task>  (57) 
close_aromatic_ring

>  <prot_clashes>  (57) 
5

>  <NBS phar>  (57) 
0.12

>  <NBS_non-phar>  (57) 
0.4729970296223958

>  <NBS>  (57) 
0.5929970296223959

>  <source_stage>  (57) 
scored

>  <source_iter>  (57) 
3

>  <source_parent_mol>  (57) 
3

>  <source_scenario>  (57) 
1 0 3

>  <source_rank_in_scored_call>  (57) 
1

>  <source_current_task>  (57) 
close_aromatic_ring

>  <scenario>  (57) 
1 0 3

>  <rotatable_bond_torsions>  (57) 
0,1,3,4;1,3,4,5

>  <reason_to_skip>  (57) 
subgraph mismatch

$$$$
